### 
### Created by X-TOOL on Fri Sep 26 17:34:26 2014
### 

@<TRIPOS>MOLECULE
1t7r_ligand
   51    54     1     0     0
SMALL
GAST_HUCK


@<TRIPOS>ATOM
      1 C1          0.0360   27.6540   38.4440 C.3       1 MOL        -0.0310
      2 C2          0.8320   26.4000   38.8370 C.3       1 MOL         0.0216
      3 C3          2.2660   26.5680   38.2550 C.2       1 MOL         0.1053
      4 O3          2.7490   25.6370   37.6300 O.2       1 MOL        -0.3916
      5 C4          2.9760   27.8670   38.4880 C.3       1 MOL         0.0244
      6 C5          2.1180   29.0760   38.0230 C.3       1 MOL        -0.0194
      7 C6          2.8350   30.4420   38.2670 C.3       1 MOL        -0.0473
      8 C7          1.9420   31.5850   37.7570 C.3       1 MOL        -0.0493
      9 C8          0.5400   31.6110   38.4550 C.3       1 MOL        -0.0343
     10 C9         -0.1630   30.2250   38.2420 C.3       1 MOL        -0.0320
     11 C10         0.6990   29.0190   38.7650 C.3       1 MOL        -0.0219
     12 C11        -1.5760   30.2840   38.9140 C.3       1 MOL        -0.0489
     13 C12        -2.4880   31.4280   38.4770 C.3       1 MOL        -0.0447
     14 C13        -1.7920   32.8070   38.5460 C.3       1 MOL        -0.0030
     15 C14        -0.3720   32.7140   37.8820 C.3       1 MOL        -0.0301
     16 C15         0.1180   34.1700   37.9760 C.3       1 MOL        -0.0470
     17 C16        -1.1500   34.9650   37.5650 C.3       1 MOL        -0.0261
     18 C17        -2.3130   33.9450   37.6820 C.3       1 MOL         0.0609
     19 O17        -3.4800   34.6080   38.2170 O.3       1 MOL        -0.3912
     20 C18        -1.7000   33.2350   40.0640 C.3       1 MOL        -0.0569
     21 C19         0.8910   29.1590   40.3360 C.3       1 MOL        -0.0588
     22 H1         -0.9283   27.6177   38.9720 H         1 MOL         0.0296
     23 H2         -0.1384   27.6135   37.3587 H         1 MOL         0.0296
     24 H3          0.3559   25.5029   38.4145 H         1 MOL         0.0494
     25 H4          0.8774   26.3096   39.9323 H         1 MOL         0.0494
     26 H5          3.9220   27.8631   37.9266 H         1 MOL         0.0497
     27 H6          3.1876   27.9711   39.5624 H         1 MOL         0.0497
     28 H7          1.9466   28.9783   36.9409 H         1 MOL         0.0331
     29 H8          3.7930   30.4555   37.7265 H         1 MOL         0.0270
     30 H9          3.0194   30.5727   39.3435 H         1 MOL         0.0270
     31 H10         1.7942   31.4603   36.6741 H         1 MOL         0.0268
     32 H11         2.4495   32.5416   37.9501 H         1 MOL         0.0268
     33 H12         0.6827   31.7895   39.5310 H         1 MOL         0.0306
     34 H13        -0.3050   30.0784   37.1611 H         1 MOL         0.0309
     35 H14        -1.4267   30.3713   40.0003 H         1 MOL         0.0268
     36 H15        -2.0931   29.3394   38.6897 H         1 MOL         0.0268
     37 H16        -3.3697   31.4458   39.1345 H         1 MOL         0.0271
     38 H17        -2.8074   31.2468   37.4401 H         1 MOL         0.0271
     39 H18        -0.4987   32.4672   36.8176 H         1 MOL         0.0310
     40 H19         0.9498   34.3574   37.2810 H         1 MOL         0.0269
     41 H20         0.4322   34.4206   38.9999 H         1 MOL         0.0269
     42 H21        -1.0592   35.3322   36.5321 H         1 MOL         0.0290
     43 H22        -1.3110   35.8155   38.2437 H         1 MOL         0.0290
     44 H23        -2.5662   33.5502   36.6870 H         1 MOL         0.0599
     45 H24        -4.1931   33.9845   38.2892 H         1 MOL         0.2098
     46 H25        -1.3209   32.3920   40.6603 H         1 MOL         0.0236
     47 H26        -2.6989   33.5201   40.4258 H         1 MOL         0.0236
     48 H27        -1.0161   34.0909   40.1629 H         1 MOL         0.0236
     49 H28         1.4938   28.3175   40.7081 H         1 MOL         0.0235
     50 H29        -0.0929   29.1510   40.8278 H         1 MOL         0.0235
     51 H30         1.4051   30.1054   40.5597 H         1 MOL         0.0235
@<TRIPOS>BOND
     1    1    2 1  
     2    1   11 1  
     3    2    3 1  
     4    3    4 2  
     5    3    5 1  
     6    5    6 1  
     7    6    7 1  
     8    6   11 1  
     9    7    8 1  
    10    8    9 1  
    11    9   10 1  
    12    9   15 1  
    13   10   11 1  
    14   10   12 1  
    15   11   21 1  
    16   12   13 1  
    17   13   14 1  
    18   14   15 1  
    19   14   18 1  
    20   14   20 1  
    21   15   16 1  
    22   16   17 1  
    23   17   18 1  
    24   18   19 1  
    25    1   22 1  
    26    1   23 1  
    27    2   24 1  
    28    2   25 1  
    29    5   26 1  
    30    5   27 1  
    31    6   28 1  
    32    7   29 1  
    33    7   30 1  
    34    8   31 1  
    35    8   32 1  
    36    9   33 1  
    37   10   34 1  
    38   12   35 1  
    39   12   36 1  
    40   13   37 1  
    41   13   38 1  
    42   15   39 1  
    43   16   40 1  
    44   16   41 1  
    45   17   42 1  
    46   17   43 1  
    47   18   44 1  
    48   19   45 1  
    49   20   46 1  
    50   20   47 1  
    51   20   48 1  
    52   21   49 1  
    53   21   50 1  
    54   21   51 1  
@<TRIPOS>SUBSTRUCTURE
     1 MOL         1

