### 
### Created by X-TOOL on Fri Sep 26 17:34:41 2014
### 

@<TRIPOS>MOLECULE
2q7u_ligand
   34    35     1     0     0
SMALL
GAST_HUCK


@<TRIPOS>ATOM
      1 P           1.1620   15.7620    8.9180 P.3       1 TMP         0.1064
      2 O1P         0.4890   15.6610   10.2280 O.co2     1 TMP        -0.6222
      3 O2P         0.5820   15.0670    7.7280 O.co2     1 TMP        -0.6222
      4 O5'         2.6850   15.3190    9.1170 O.3       1 TMP        -0.2803
      5 C5'         3.8100   16.2260    9.1240 C.3       1 TMP         0.1103
      6 C4'         4.7330   15.9130   10.2810 C.3       1 TMP         0.1164
      7 O4'         6.0780   16.4310   10.0740 O.3       1 TMP        -0.3394
      8 C3'         4.4160   16.1150   11.7670 C.3       1 TMP         0.0890
      9 O3'         3.8910   14.9340   12.3660 O.3       1 TMP        -0.3890
     10 C2'         5.7620   16.4820   12.3870 C.3       1 TMP         0.0308
     11 C1'         6.4700   17.1620   11.2170 C.3       1 TMP         0.1757
     12 N1          6.6970   18.6340   11.2090 N.am      1 TMP        -0.1736
     13 C2          5.8090   19.4810   11.8540 C.2       1 TMP         0.3265
     14 O2          4.8060   19.0930   12.4380 O.2       1 TMP        -0.3843
     15 N3          6.1360   20.8130   11.7810 N.am      1 TMP        -0.1859
     16 C4          7.2190   21.3780   11.1300 C.2       1 TMP         0.1930
     17 O4          7.3180   22.6000   11.0610 O.2       1 TMP        -0.4079
     18 C5          8.1040   20.4360   10.4780 C.2       1 TMP         0.0225
     19 C5M         9.3410   20.9420    9.8030 C.3       1 TMP        -0.0437
     20 C6          7.7990   19.1320   10.5470 C.2       1 TMP         0.0524
     21 H1          1.1559   16.7422    8.6829 H         1 TMP         0.1780
     22 H2          3.4427   17.2582    9.2225 H         1 TMP         0.0650
     23 H3          4.3647   16.1227    8.1798 H         1 TMP         0.0650
     24 H4          4.8249   14.8198   10.2005 H         1 TMP         0.0650
     25 H5          3.6938   16.9346   11.8961 H         1 TMP         0.0622
     26 H6          3.7079   15.0988   13.2835 H         1 TMP         0.2099
     27 H7          6.3074   15.5864   12.7193 H         1 TMP         0.0344
     28 H8          5.6377   17.1713   13.2351 H         1 TMP         0.0344
     29 H9          7.5107   16.8311   11.3494 H         1 TMP         0.0959
     30 H10         5.5219   21.4466   12.2516 H         1 TMP         0.2259
     31 H11         9.8911   20.0966    9.3640 H         1 TMP         0.0296
     32 H12         9.9789   21.4512   10.5404 H         1 TMP         0.0296
     33 H13         9.0618   21.6498    9.0086 H         1 TMP         0.0296
     34 H14         8.4612   18.4242   10.0505 H         1 TMP         0.1011
@<TRIPOS>BOND
     1    1    2 ar 
     2    1    3 ar 
     3    1    4 1  
     4    4    5 1  
     5    5    6 1  
     6    6    7 1  
     7    6    8 1  
     8    7   11 1  
     9    8    9 1  
    10    8   10 1  
    11   10   11 1  
    12   11   12 1  
    13   12   13 am 
    14   12   20 1  
    15   13   14 2  
    16   13   15 am 
    17   15   16 am 
    18   16   17 2  
    19   16   18 1  
    20   18   19 1  
    21   18   20 2  
    22    1   21 1  
    23    5   22 1  
    24    5   23 1  
    25    6   24 1  
    26    8   25 1  
    27    9   26 1  
    28   10   27 1  
    29   10   28 1  
    30   11   29 1  
    31   15   30 1  
    32   19   31 1  
    33   19   32 1  
    34   19   33 1  
    35   20   34 1  
@<TRIPOS>SUBSTRUCTURE
     1 TMP         1

