### 
### Created by X-TOOL on Fri Sep 26 17:34:49 2014
### 

@<TRIPOS>MOLECULE
2xto_ligand
   41    43     1     0     0
SMALL
GAST_HUCK


@<TRIPOS>ATOM
      1 PB        -16.8600  -24.8410    6.3060 P.3       1 GDP         0.2069
      2 O1B       -16.3780  -25.1020    7.7120 O.co2     1 GDP        -0.5891
      3 O2B       -15.9280  -23.8770    5.6120 O.co2     1 GDP        -0.5891
      4 O3B       -18.2530  -24.2500    6.3810 O.co2     1 GDP        -0.5891
      5 O3A       -16.8920  -26.2050    5.4470 O.3       1 GDP        -0.1548
      6 PA        -16.9950  -27.6620    6.1230 P.3       1 GDP         0.3276
      7 O1A       -18.1960  -27.7820    7.0300 O.co2     1 GDP        -0.5556
      8 O2A       -15.7330  -28.0030    6.8760 O.co2     1 GDP        -0.5556
      9 O5'       -17.1360  -28.5940    4.8260 O.3       1 GDP        -0.2436
     10 C5'       -18.2770  -28.5040    3.9750 C.3       1 GDP         0.1132
     11 C4'       -18.2840  -29.6960    3.0220 C.3       1 GDP         0.1190
     12 O4'       -17.1720  -29.5920    2.1290 O.3       1 GDP        -0.3347
     13 C3'       -18.1470  -31.0270    3.7550 C.3       1 GDP         0.1151
     14 O3'       -19.1260  -31.9430    3.2470 O.3       1 GDP        -0.3864
     15 C2'       -16.7310  -31.4970    3.4570 C.3       1 GDP         0.1407
     16 O2'       -16.6150  -32.9180    3.3330 O.3       1 GDP        -0.3835
     17 C1'       -16.4170  -30.8050    2.1410 C.3       1 GDP         0.2218
     18 N9        -14.9620  -30.5600    1.9770 N.pl3     1 GDP        -0.0954
     19 C8        -14.1690  -29.7630    2.7190 C.2       1 GDP         0.1855
     20 N7        -12.8870  -29.7990    2.2660 N.2       1 GDP        -0.1929
     21 C5        -12.8510  -30.6390    1.2130 C.2       1 GDP         0.2558
     22 C6        -11.8280  -31.1420    0.2630 C.2       1 GDP         0.2628
     23 O6        -10.6370  -30.7750    0.3420 O.2       1 GDP        -0.3594
     24 N1        -12.2180  -32.0030   -0.6880 N.am      1 GDP        -0.2478
     25 C2        -13.4950  -32.4270   -0.8040 C.cat     1 GDP         0.2041
     26 N2        -13.8220  -33.2990   -1.7870 N.pl3     1 GDP        -0.3327
     27 N3        -14.4810  -32.0070    0.0270 N.pl3     1 GDP        -0.1901
     28 C4        -14.2220  -31.1340    1.0310 C.2       1 GDP         0.3268
     29 H         -18.2356  -27.5772    3.4028 H         1 GDP         0.0648
     30 H         -19.1854  -28.5107    4.5774 H         1 GDP         0.0648
     31 H         -19.2385  -29.6756    2.4961 H         1 GDP         0.0651
     32 H         -18.3118  -30.9484    4.8296 H         1 GDP         0.0648
     33 H         -19.0446  -32.7829    3.7047 H         1 GDP         0.2100
     34 H         -16.0432  -31.2524    4.2665 H         1 GDP         0.0677
     35 H         -17.1762  -33.2224    2.6161 H         1 GDP         0.2101
     36 H         -16.6939  -31.4363    1.2967 H         1 GDP         0.1021
     37 H         -14.5088  -29.1695    3.5677 H         1 GDP         0.1823
     38 H         -11.5236  -32.3511   -1.3491 H         1 GDP         0.1819
     39 H         -13.1061  -33.6309   -2.4333 H         1 GDP         0.1774
     40 H         -14.7843  -33.6239   -1.8812 H         1 GDP         0.1774
     41 H         -15.4313  -32.3531   -0.1054 H         1 GDP         0.2519
@<TRIPOS>BOND
     1    1    2 ar 
     2    1    3 ar 
     3    1    4 ar 
     4    1    5 1  
     5    5    6 1  
     6    6    7 ar 
     7    6    8 ar 
     8    6    9 1  
     9    9   10 1  
    10   10   11 1  
    11   11   12 1  
    12   11   13 1  
    13   12   17 1  
    14   13   14 1  
    15   13   15 1  
    16   15   16 1  
    17   15   17 1  
    18   17   18 1  
    19   18   19 1  
    20   18   28 1  
    21   19   20 2  
    22   20   21 1  
    23   21   22 1  
    24   21   28 2  
    25   22   23 2  
    26   22   24 am 
    27   24   25 ar 
    28   25   26 ar 
    29   25   27 ar 
    30   27   28 1  
    31   10   29 1  
    32   10   30 1  
    33   11   31 1  
    34   13   32 1  
    35   14   33 1  
    36   15   34 1  
    37   16   35 1  
    38   17   36 1  
    39   19   37 1  
    40   24   38 1  
    41   26   39 1  
    42   26   40 1  
    43   27   41 1  
@<TRIPOS>SUBSTRUCTURE
     1 GDP         1

