### 
### Created by X-TOOL on Fri Sep 26 17:34:46 2014
### 

@<TRIPOS>MOLECULE
3d45_ligand
   41    43     1     0     0
SMALL
GAST_HUCK


@<TRIPOS>ATOM
      1 P           7.0270   14.5830   25.2190 P.3       1 MOL         0.1064
      2 OP1         6.2560   14.9550   26.4420 O.co2     1 MOL        -0.6222
      3 OP2         8.4710   14.8740   25.0230 O.co2     1 MOL        -0.6222
      4 O5'         6.9250   13.0230   25.0030 O.3       1 MOL        -0.2803
      5 C5'         7.9510   12.3640   25.6340 C.3       1 MOL         0.1104
      6 C4'         7.6340   10.9090   25.8700 C.3       1 MOL         0.1170
      7 O4'         8.1510   10.5860   27.1760 O.3       1 MOL        -0.3529
      8 C3'         6.1820   10.4640   25.8250 C.3       1 MOL         0.1129
      9 O3'         6.2020    9.2260   25.1800 O.3       1 MOL        -0.3864
     10 C2'         5.7910   10.2050   27.2600 C.3       1 MOL         0.1208
     11 O2'         5.3510    8.8780   27.4580 O.3       1 MOL        -0.3857
     12 C1'         7.0850   10.3180   28.0410 C.3       1 MOL         0.1656
     13 N9          6.9290   11.3250   29.0590 N.2       1 MOL        -0.1577
     14 C8          6.7770   12.6840   28.9250 C.2       1 MOL         0.2318
     15 N7          6.6200   13.2470   30.0910 N.pl3     1 MOL        -0.0547
     16 C5          6.6700   12.2040   30.9950 C.2       1 MOL         0.4523
     17 C6          6.5490   12.2270   32.3840 C.2       1 MOL         0.4098
     18 O6          6.3840   13.2160   33.1080 O.2       1 MOL        -0.2762
     19 N1          6.6590   10.9510   32.9290 N.am      1 MOL        -0.2152
     20 C2          6.8520    9.7770   32.2400 C.cat     1 MOL         0.2333
     21 N2          6.9290    8.6550   32.9950 N.pl3     1 MOL        -0.3251
     22 N3          6.9500    9.7590   30.9100 N.pl3     1 MOL        -0.1473
     23 C4          6.8510   11.0080   30.3790 C.2       1 MOL         0.4104
     24 CM7         6.5070   14.6710   30.4290 C.3       1 MOL         0.0996
     25 H1          6.5498   15.0483   24.4629 H         1 MOL         0.1780
     26 H2          8.1388   12.8474   26.6041 H         1 MOL         0.0650
     27 H3          8.8536   12.4329   25.0091 H         1 MOL         0.0650
     28 H4          8.1733   10.3286   25.1070 H         1 MOL         0.0650
     29 H5          5.5227   11.1924   25.3302 H         1 MOL         0.0647
     30 H6          5.3167    8.8872   25.1175 H         1 MOL         0.2100
     31 H7          5.0320   10.9256   27.5987 H         1 MOL         0.0655
     32 H8          5.1151    8.7554   28.3700 H         1 MOL         0.2100
     33 H9          7.2835    9.3561   28.5362 H         1 MOL         0.0758
     34 H10         6.7863   13.2177   27.9758 H         1 MOL         0.2243
     35 H11         6.5906   10.8809   33.9242 H         1 MOL         0.1858
     36 H12         7.0728    7.7400   32.5445 H         1 MOL         0.1812
     37 H13         6.8437    8.7169   34.0196 H         1 MOL         0.1812
     38 H14         7.0843    8.9035   30.3524 H         1 MOL         0.2869
     39 H15         6.4900   15.2670   29.5046 H         1 MOL         0.0658
     40 H16         7.3686   14.9716   31.0433 H         1 MOL         0.0658
     41 H17         5.5777   14.8416   30.9923 H         1 MOL         0.0658
@<TRIPOS>BOND
     1    1    2 ar 
     2    1    3 ar 
     3    1    4 1  
     4    4    5 1  
     5    5    6 1  
     6    6    7 1  
     7    6    8 1  
     8    7   12 1  
     9    8    9 1  
    10    8   10 1  
    11   10   11 1  
    12   10   12 1  
    13   12   13 1  
    14   13   14 2  
    15   13   23 1  
    16   14   15 1  
    17   15   16 1  
    18   15   24 1  
    19   16   17 1  
    20   16   23 2  
    21   17   18 2  
    22   17   19 am 
    23   19   20 ar 
    24   20   21 ar 
    25   20   22 ar 
    26   22   23 1  
    27    1   25 1  
    28    5   26 1  
    29    5   27 1  
    30    6   28 1  
    31    8   29 1  
    32    9   30 1  
    33   10   31 1  
    34   11   32 1  
    35   12   33 1  
    36   14   34 1  
    37   19   35 1  
    38   21   36 1  
    39   21   37 1  
    40   22   38 1  
    41   24   39 1  
    42   24   40 1  
    43   24   41 1  
@<TRIPOS>SUBSTRUCTURE
     1 MOL         1

