### 
### Created by X-TOOL on Fri Sep 26 17:34:50 2014
### 

@<TRIPOS>MOLECULE
3n75_ligand
   48    50     1     0     0
SMALL
GAST_HUCK


@<TRIPOS>ATOM
      1 PB         54.0650   18.9350  112.8620 P.3       1 G4P         0.2069
      2 O1B        53.1350   18.7240  111.7040 O.co2     1 G4P        -0.5891
      3 O2B        53.4300   18.7050  114.2030 O.co2     1 G4P        -0.5891
      4 O3B        55.4570   18.3350  112.7450 O.co2     1 G4P        -0.5891
      5 O3A        54.3750   20.5170  112.7530 O.3       1 G4P        -0.1548
      6 PA         53.2950   21.7130  112.5700 P.3       1 G4P         0.3276
      7 O1A        51.9700   21.3780  113.2060 O.co2     1 G4P        -0.5556
      8 O2A        54.0110   22.9860  112.9280 O.co2     1 G4P        -0.5556
      9 O5'        53.0550   21.7660  110.9980 O.3       1 G4P        -0.2436
     10 C5'        54.0920   22.1840  110.1080 C.3       1 G4P         0.1135
     11 C4'        53.4810   22.0570  108.7270 C.3       1 G4P         0.1244
     12 O4'        52.5150   23.0930  108.5400 O.3       1 G4P        -0.3343
     13 C3'        54.4850   22.1710  107.6020 C.3       1 G4P         0.1548
     14 O3'        54.8260   20.8520  107.1650 O.3       1 G4P        -0.2374
     15 C2'        53.7100   22.8700  106.5100 C.3       1 G4P         0.1461
     16 O2'        53.0230   21.8550  105.7470 O.3       1 G4P        -0.3831
     17 C1'        52.6010   23.6310  107.2240 C.3       1 G4P         0.2222
     18 N9         52.7070   25.1070  107.3510 N.pl3     1 G4P        -0.0954
     19 C8         51.7040   25.9320  107.0070 C.2       1 G4P         0.1855
     20 N7         52.0590   27.2040  107.2570 N.2       1 G4P        -0.1929
     21 C5         53.2920   27.1740  107.7770 C.2       1 G4P         0.2558
     22 C6         54.1410   28.1670  108.2230 C.2       1 G4P         0.2628
     23 O6         53.7890   29.3610  108.1810 O.2       1 G4P        -0.3594
     24 N1         55.3490   27.8400  108.7160 N.am      1 G4P        -0.2478
     25 C2         55.7320   26.5460  108.7790 C.cat     1 G4P         0.2041
     26 N2         56.9560   26.2410  109.2780 N.pl3     1 G4P        -0.3327
     27 N3         54.9210   25.5530  108.3560 N.pl3     1 G4P        -0.1901
     28 C4         53.6990   25.8470  107.8480 C.2       1 G4P         0.3268
     29 PC         56.3290   20.5250  106.6680 P.3       1 G4P         0.3279
     30 O1C        57.0000   21.8200  106.2610 O.co2     1 G4P        -0.5556
     31 O2C        56.9920   19.7010  107.7540 O.co2     1 G4P        -0.5556
     32 O3C        56.1670   19.5570  105.3750 O.3       1 G4P        -0.1548
     33 PD         54.8080   19.0770  104.6380 P.3       1 G4P         0.2069
     34 O1D        54.2020   20.3430  104.0900 O.co2     1 G4P        -0.5891
     35 O2D        53.9770   18.3480  105.6720 O.co2     1 G4P        -0.5891
     36 O3D        55.3530   18.1450  103.5810 O.co2     1 G4P        -0.5891
     37 H1         54.9732   21.5328  110.2046 H         1 G4P         0.0648
     38 H2         54.3818   23.2256  110.3106 H         1 G4P         0.0648
     39 H3         52.9868   21.0767  108.6585 H         1 G4P         0.0655
     40 H4         55.3819   22.7344  107.8990 H         1 G4P         0.0712
     41 H5         54.3461   23.5148  105.8858 H         1 G4P         0.0682
     42 H6         53.6592   21.2571  105.3725 H         1 G4P         0.2102
     43 H7         51.6665   23.4227  106.6824 H         1 G4P         0.1022
     44 H8         50.7487   25.6179  106.5892 H         1 G4P         0.1823
     45 H9         55.9664   28.5580  109.0374 H         1 G4P         0.1819
     46 H10        57.2601   25.2584  109.3315 H         1 G4P         0.1774
     47 H11        57.5813   26.9920  109.6034 H         1 G4P         0.1774
     48 H12        55.2305   24.5726  108.4192 H         1 G4P         0.2519
@<TRIPOS>BOND
     1    1    2 ar 
     2    1    3 ar 
     3    1    4 ar 
     4    1    5 1  
     5    5    6 1  
     6    6    7 ar 
     7    6    8 ar 
     8    6    9 1  
     9    9   10 1  
    10   10   11 1  
    11   11   12 1  
    12   11   13 1  
    13   12   17 1  
    14   13   14 1  
    15   13   15 1  
    16   14   29 1  
    17   15   16 1  
    18   15   17 1  
    19   17   18 1  
    20   18   19 1  
    21   18   28 1  
    22   19   20 2  
    23   20   21 1  
    24   21   22 1  
    25   21   28 2  
    26   22   23 2  
    27   22   24 am 
    28   24   25 ar 
    29   25   26 ar 
    30   25   27 ar 
    31   27   28 1  
    32   29   30 ar 
    33   29   31 ar 
    34   29   32 1  
    35   32   33 1  
    36   33   34 ar 
    37   33   35 ar 
    38   33   36 ar 
    39   10   37 1  
    40   10   38 1  
    41   11   39 1  
    42   13   40 1  
    43   15   41 1  
    44   16   42 1  
    45   17   43 1  
    46   19   44 1  
    47   24   45 1  
    48   26   46 1  
    49   26   47 1  
    50   27   48 1  
@<TRIPOS>SUBSTRUCTURE
     1 G4P         1

