### 
### Created by X-TOOL on Fri Sep 26 17:34:56 2014
### 

@<TRIPOS>MOLECULE
3tei_ligand
   44    46     1     0     0
SMALL
GAST_HUCK


@<TRIPOS>ATOM
      1 PG         -2.3020   -2.9870    9.5740 P.3       1 ANP         0.1803
      2 O1G        -0.8990   -2.8640    9.0150 O.co2     1 ANP        -0.5454
      3 O2G        -2.4550   -2.1780   10.9140 O.co2     1 ANP        -0.5454
      4 O3G        -2.6850   -4.5270    9.8750 O.co2     1 ANP        -0.5454
      5 PB         -2.9440   -2.9560    6.9120 P.3       1 ANP         0.2543
      6 O1B        -4.4030   -2.9170    6.2540 O.co2     1 ANP        -0.6257
      7 O2B        -2.0420   -4.2560    6.8030 O.co2     1 ANP        -0.6257
      8 N3B        -3.4100   -2.3940    8.5000 N.am      1 ANP        -0.1803
      9 PA         -2.7510   -0.2190    6.9770 P.3       1 ANP         0.2949
     10 O1A        -4.0980   -0.2000    7.7450 O.co2     1 ANP        -0.6129
     11 O2A        -2.8270    0.7410    5.8380 O.co2     1 ANP        -0.6129
     12 O3A        -2.4290   -1.5940    6.2960 O.3       1 ANP        -0.1431
     13 O5'        -1.5430    0.2260    7.8840 O.3       1 ANP        -0.2478
     14 C5'        -0.2850    0.5260    7.2910 C.3       1 ANP         0.1128
     15 C4'         0.3670    1.8040    7.5960 C.3       1 ANP         0.1189
     16 O4'        -0.4530    2.8530    7.2160 O.3       1 ANP        -0.3364
     17 C3'         0.5890    1.9180    9.0640 C.3       1 ANP         0.1149
     18 O3'         1.8620    2.4190    9.3220 O.3       1 ANP        -0.3864
     19 C2'        -0.4340    2.7890    9.5410 C.3       1 ANP         0.1385
     20 O2'         0.0110    3.5730   10.5860 O.3       1 ANP        -0.3836
     21 C1'        -0.7490    3.6230    8.3770 C.3       1 ANP         0.2010
     22 N9         -2.1010    4.2230    8.2810 N.pl3     1 ANP        -0.1919
     23 C8         -3.2330    3.5880    7.9170 C.2       1 ANP         0.1123
     24 N7         -4.2390    4.4650    7.9380 N.2       1 ANP        -0.2958
     25 C5         -3.7600    5.6790    8.3210 C.ar      1 ANP         0.1045
     26 C6         -4.3230    6.9520    8.5170 C.ar      1 ANP         0.1298
     27 N6         -5.7300    7.1590    8.3020 N.pl3     1 ANP        -0.3152
     28 N1         -3.5550    7.9790    8.9050 N.ar      1 ANP        -0.2698
     29 C2         -2.2450    7.7980    9.0970 C.ar      1 ANP         0.0533
     30 N3         -1.6600    6.6020    8.9220 N.ar      1 ANP        -0.2714
     31 C4         -2.3910    5.5300    8.5360 C.ar      1 ANP         0.1613
     32 H1         -4.1997   -1.8206    8.7182 H         1 ANP         0.2132
     33 H2         -0.4278    0.4910    6.2009 H         1 ANP         0.0648
     34 H3          0.4109   -0.2696    7.5954 H         1 ANP         0.0648
     35 H4          1.3275    1.8644    7.0634 H         1 ANP         0.0651
     36 H5          0.4908    0.9313    9.5403 H         1 ANP         0.0648
     37 H6          1.9902    2.4865   10.2609 H         1 ANP         0.2100
     38 H7         -1.3147    2.2146    9.8642 H         1 ANP         0.0676
     39 H8          0.7435    4.1025   10.2936 H         1 ANP         0.2101
     40 H9         -0.0498    4.4716    8.4066 H         1 ANP         0.0996
     41 H10        -3.3133    2.5352    7.6503 H         1 ANP         0.1349
     42 H11        -6.1411    8.0923    8.4460 H         1 ANP         0.1820
     43 H12        -6.3264    6.3739    8.0040 H         1 ANP         0.1820
     44 H13        -1.6367    8.6414    9.4030 H         1 ANP         0.0996
@<TRIPOS>BOND
     1    1    2 ar 
     2    1    3 ar 
     3    1    4 ar 
     4    8    1 am 
     5    5    6 ar 
     6    5    7 ar 
     7    5    8 1  
     8   12    5 1  
     9    9   10 ar 
    10    9   11 ar 
    11    9   12 1  
    12    9   13 1  
    13   13   14 1  
    14   14   15 1  
    15   15   16 1  
    16   15   17 1  
    17   16   21 1  
    18   17   18 1  
    19   17   19 1  
    20   19   20 1  
    21   19   21 1  
    22   21   22 1  
    23   22   23 1  
    24   22   31 1  
    25   23   24 2  
    26   24   25 1  
    27   25   26 ar 
    28   25   31 ar 
    29   26   27 1  
    30   26   28 ar 
    31   28   29 ar 
    32   29   30 ar 
    33   30   31 ar 
    34    8   32 1  
    35   14   33 1  
    36   14   34 1  
    37   15   35 1  
    38   17   36 1  
    39   18   37 1  
    40   19   38 1  
    41   20   39 1  
    42   21   40 1  
    43   23   41 1  
    44   27   42 1  
    45   27   43 1  
    46   29   44 1  
@<TRIPOS>SUBSTRUCTURE
     1 ANP         1

