### 
### Created by X-TOOL on Fri Sep 26 17:34:54 2014
### 

@<TRIPOS>MOLECULE
4g0a_ligand
   75    80     1     0     0
SMALL
GAST_HUCK


@<TRIPOS>ATOM
      1 P         -13.6080   17.5520    5.1350 P.3       1 G           0.1064
      2 OP1       -14.1300   16.8680    6.3450 O.co2     1 G          -0.6222
      3 OP2       -12.8430   16.7750    4.1250 O.co2     1 G          -0.6222
      4 O5'       -14.7550   18.4110    4.4350 O.3       1 G          -0.2803
      5 C5'       -15.3620   19.5050    5.1090 C.3       1 G           0.1108
      6 C4'       -16.2990   20.2620    4.2010 C.3       1 G           0.1245
      7 O4'       -15.5570   20.8180    3.0880 O.3       1 G          -0.3342
      8 C3'       -17.4000   19.4380    3.5490 C.3       1 G           0.1541
      9 O3'       -18.5210   19.2560    4.3970 O.3       1 G          -0.2453
     10 C2'       -17.7170   20.2280    2.2840 C.3       1 G           0.1461
     11 O2'       -18.5820   21.3160    2.5750 O.3       1 G          -0.3831
     12 C1'       -16.3410   20.7870    1.9160 C.3       1 G           0.2222
     13 N9        -15.6500   19.9550    0.9120 N.pl3     1 G          -0.0954
     14 C8        -15.0570   18.7310    1.1050 C.2       1 G           0.1855
     15 N7        -14.5200   18.2450    0.0200 N.2       1 G          -0.1929
     16 C5        -14.7700   19.2060   -0.9500 C.2       1 G           0.2558
     17 C6        -14.4290   19.2360   -2.3270 C.2       1 G           0.2628
     18 O6        -13.8130   18.3880   -2.9850 O.2       1 G          -0.3594
     19 N1        -14.8790   20.4030   -2.9380 N.am      1 G          -0.2478
     20 C2        -15.5690   21.4120   -2.3080 C.cat     1 G           0.2041
     21 N2        -15.9210   22.4640   -3.0630 N.pl3     1 G          -0.3327
     22 N3        -15.8920   21.3930   -1.0270 N.pl3     1 G          -0.1901
     23 C4        -15.4640   20.2690   -0.4140 C.2       1 G           0.3268
     24 P         -19.2300   17.8190    4.5110 P.3       1 G           0.2557
     25 OP1       -19.5240   17.5890    5.9470 O.co2     1 G          -0.6177
     26 OP2       -18.3670   16.8470    3.7960 O.co2     1 G          -0.6177
     27 O5'       -20.5890   18.0300    3.7090 O.3       1 G          -0.2514
     28 C5'       -20.6020   18.0780    2.2890 C.3       1 G           0.1128
     29 C4'       -22.0040   18.2380    1.7580 C.3       1 G           0.1245
     30 O4'       -22.8480   17.1860    2.2920 O.3       1 G          -0.3342
     31 C3'       -22.7160   19.5260    2.1450 C.3       1 G           0.1521
     32 O3'       -22.3800   20.6150    1.3020 O.3       1 G          -0.2743
     33 C2'       -24.1860   19.1350    2.0820 C.3       1 G           0.1462
     34 O2'       -24.6490   19.1380    0.7390 O.3       1 G          -0.3830
     35 C1'       -24.1360   17.6890    2.5720 C.3       1 G           0.2223
     36 N9        -24.3680   17.5870    4.0260 N.pl3     1 G          -0.0954
     37 C8        -23.7470   18.3030    5.0210 C.2       1 G           0.1855
     38 N7        -24.1610   17.9840    6.2170 N.2       1 G          -0.1929
     39 C5        -25.1120   16.9960    5.9990 C.2       1 G           0.2558
     40 C6        -25.9070   16.2650    6.9200 C.2       1 G           0.2628
     41 O6        -25.9310   16.3480    8.1540 O.2       1 G          -0.3594
     42 N1        -26.7380   15.3600    6.2690 N.am      1 G          -0.2478
     43 C2        -26.8000   15.1780    4.9100 C.cat     1 G           0.2041
     44 N2        -27.6690   14.2540    4.4760 N.pl3     1 G          -0.3327
     45 N3        -26.0650   15.8530    4.0410 N.pl3     1 G          -0.1901
     46 C4        -25.2500   16.7380    4.6520 C.2       1 G           0.3268
     47 P         -22.8630   22.1030    1.6690 P.3       1 G           0.1069
     48 OP1       -24.2160   22.2960    1.1020 O.co2     1 G          -0.6222
     49 OP2       -21.7730   23.0380    1.3100 O.co2     1 G          -0.6222
     50 H1        -12.9413   18.2175    5.4937 H         1 G           0.1780
     51 H2        -14.5756   20.1887    5.4614 H         1 G           0.0650
     52 H3        -15.9296   19.1237    5.9707 H         1 G           0.0650
     53 H4        -16.7601   21.0690    4.7894 H         1 G           0.0655
     54 H5        -17.0148   18.4435    3.2797 H         1 G           0.0712
     55 H6        -18.1411   19.5922    1.4929 H         1 G           0.0681
     56 H7        -19.3932   20.9848    2.9421 H         1 G           0.2102
     57 H8        -16.4599   21.8054    1.5177 H         1 G           0.1022
     58 H9        -15.0372   18.2186    2.0657 H         1 G           0.1823
     59 H10       -14.6851   20.5166   -3.9124 H         1 G           0.1819
     60 H11       -16.4394   23.2488   -2.6431 H         1 G           0.1774
     61 H12       -15.6728   22.4867   -4.0624 H         1 G           0.1774
     62 H13       -16.4092   22.1467   -0.5522 H         1 G           0.2519
     63 H14       -20.1743   17.1442    1.8952 H         1 G           0.0647
     64 H15       -19.9927   18.9303    1.9539 H         1 G           0.0647
     65 H16       -21.9604   18.1704    0.6610 H         1 G           0.0655
     66 H17       -22.4506   19.8048    3.1754 H         1 G           0.0714
     67 H18       -24.8157   19.7772    2.7153 H         1 G           0.0682
     68 H19       -24.5460   20.0080    0.3717 H         1 G           0.2102
     69 H20       -24.8968   17.0977    2.0414 H         1 G           0.1022
     70 H21       -22.9870   19.0594    4.8310 H         1 G           0.1823
     71 H22       -27.3386   14.7966    6.8364 H         1 G           0.1819
     72 H23       -27.7635   14.0695    3.4671 H         1 G           0.1774
     73 H24       -28.2422   13.7286    5.1515 H         1 G           0.1774
     74 H25       -26.1096   15.7190    3.0207 H         1 G           0.2519
     75 H26       -22.9678   22.1674    2.6695 H         1 G           0.1780
@<TRIPOS>BOND
     1    1    2 ar 
     2    1    3 ar 
     3    1    4 1  
     4    4    5 1  
     5    5    6 1  
     6    6    7 1  
     7    6    8 1  
     8    7   12 1  
     9    8    9 1  
    10    8   10 1  
    11    9   24 1  
    12   10   11 1  
    13   10   12 1  
    14   12   13 1  
    15   13   14 1  
    16   13   23 1  
    17   14   15 2  
    18   15   16 1  
    19   16   17 1  
    20   16   23 2  
    21   17   18 2  
    22   17   19 am 
    23   19   20 ar 
    24   20   21 ar 
    25   20   22 ar 
    26   22   23 1  
    27   24   25 ar 
    28   24   26 ar 
    29   24   27 1  
    30   27   28 1  
    31   28   29 1  
    32   29   30 1  
    33   29   31 1  
    34   30   35 1  
    35   31   32 1  
    36   31   33 1  
    37   32   47 1  
    38   33   34 1  
    39   33   35 1  
    40   35   36 1  
    41   36   37 1  
    42   36   46 1  
    43   37   38 2  
    44   38   39 1  
    45   39   40 1  
    46   39   46 2  
    47   40   41 2  
    48   40   42 am 
    49   42   43 ar 
    50   43   44 ar 
    51   43   45 ar 
    52   45   46 1  
    53   47   48 ar 
    54   47   49 ar 
    55    1   50 1  
    56    5   51 1  
    57    5   52 1  
    58    6   53 1  
    59    8   54 1  
    60   10   55 1  
    61   11   56 1  
    62   12   57 1  
    63   14   58 1  
    64   19   59 1  
    65   21   60 1  
    66   21   61 1  
    67   22   62 1  
    68   28   63 1  
    69   28   64 1  
    70   29   65 1  
    71   31   66 1  
    72   33   67 1  
    73   34   68 1  
    74   35   69 1  
    75   37   70 1  
    76   42   71 1  
    77   44   72 1  
    78   44   73 1  
    79   45   74 1  
    80   47   75 1  
@<TRIPOS>SUBSTRUCTURE
     1 G           1

