### 
### Created by X-TOOL on Fri Sep 26 17:34:59 2014
### 

@<TRIPOS>MOLECULE
4i67_ligand
  142   152     1     0     0
SMALL
GAST_HUCK


@<TRIPOS>ATOM
      1 OP3        35.0110  -15.2280  -19.6060 O.co2     1 G          -0.5537
      2 P          36.5750  -15.5130  -19.8470 P.3       1 G           0.2008
      3 OP1        36.6730  -16.6980  -20.7420 O.co2     1 G          -0.5537
      4 OP2        37.2210  -14.2330  -20.2520 O.co2     1 G          -0.5537
      5 O5'        37.1230  -15.9410  -18.4060 O.3       1 G          -0.2734
      6 C5'        38.5270  -16.0080  -18.1470 C.3       1 G           0.1075
      7 C4'        38.8580  -16.4920  -16.7490 C.3       1 G           0.1236
      8 O4'        38.0940  -15.7370  -15.7690 O.3       1 G          -0.3343
      9 C3'        38.5790  -17.9660  -16.4620 C.3       1 G           0.1540
     10 O3'        39.5320  -18.4470  -15.5170 O.3       1 G          -0.2453
     11 C2'        37.2160  -17.9200  -15.7910 C.3       1 G           0.1461
     12 O2'        36.9350  -19.0220  -14.9510 O.3       1 G          -0.3831
     13 C1'        37.3060  -16.6180  -14.9950 C.3       1 G           0.2222
     14 N9         36.0040  -15.9920  -14.8180 N.pl3     1 G          -0.0954
     15 C8         35.3800  -15.1250  -15.6830 C.2       1 G           0.1855
     16 N7         34.2020  -14.7470  -15.2680 N.2       1 G          -0.1929
     17 C5         34.0440  -15.4190  -14.0650 C.2       1 G           0.2558
     18 C6         32.9640  -15.4040  -13.1560 C.2       1 G           0.2628
     19 O6         31.9040  -14.7700  -13.2430 O.2       1 G          -0.3594
     20 N1         33.2240  -16.2330  -12.0650 N.am      1 G          -0.2478
     21 C2         34.3690  -16.9770  -11.8750 C.cat     1 G           0.2041
     22 N2         34.4220  -17.7130  -10.7550 N.pl3     1 G          -0.3327
     23 N3         35.3870  -17.0010  -12.7190 N.pl3     1 G          -0.1901
     24 C4         35.1500  -16.1960  -13.7760 C.2       1 G           0.3268
     25 P          40.8570  -19.2010  -16.0140 P.3       1 G           0.2557
     26 OP1        40.4430  -20.3490  -16.8640 O.co2     1 G          -0.6177
     27 OP2        41.7030  -19.4160  -14.8120 O.co2     1 G          -0.6177
     28 O5'        41.5910  -18.1310  -16.9410 O.3       1 G          -0.2514
     29 C5'        42.6760  -17.3640  -16.4300 C.3       1 G           0.1128
     30 C4'        43.1360  -16.3000  -17.3970 C.3       1 G           0.1243
     31 O4'        42.0360  -15.3900  -17.6780 O.3       1 G          -0.3343
     32 C3'        44.2790  -15.4320  -16.8870 C.3       1 G           0.1541
     33 O3'        45.1080  -15.0460  -17.9810 O.3       1 G          -0.2453
     34 C2'        43.5520  -14.2100  -16.3410 C.3       1 G           0.1461
     35 O2'        44.3450  -13.0530  -16.2810 O.3       1 G          -0.3831
     36 C1'        42.4090  -14.0690  -17.3370 C.3       1 G           0.2222
     37 N9         41.2150  -13.3930  -16.8180 N.pl3     1 G          -0.0954
     38 C8         40.5080  -12.4310  -17.4980 C.2       1 G           0.1855
     39 N7         39.4680  -11.9930  -16.8470 N.2       1 G          -0.1929
     40 C5         39.4720  -12.7120  -15.6520 C.2       1 G           0.2558
     41 C6         38.5680  -12.6620  -14.5480 C.2       1 G           0.2628
     42 O6         37.5640  -11.9500  -14.3780 O.2       1 G          -0.3594
     43 N1         38.9380  -13.5500  -13.5510 N.am      1 G          -0.2478
     44 C2         40.0240  -14.3840  -13.6110 C.cat     1 G           0.2041
     45 N2         40.2040  -15.1650  -12.5380 N.pl3     1 G          -0.3327
     46 N3         40.8690  -14.4430  -14.6290 N.pl3     1 G          -0.1901
     47 C4         40.5450  -13.5830  -15.6160 C.2       1 G           0.3268
     48 P          46.5570  -15.7180  -18.1610 P.3       1 G           0.2557
     49 OP1        47.3110  -14.9150  -19.1540 O.co2     1 G          -0.6177
     50 OP2        46.3770  -17.1900  -18.2910 O.co2     1 G          -0.6177
     51 O5'        47.2630  -15.4600  -16.7650 O.3       1 G          -0.2514
     52 C5'        47.6640  -14.1520  -16.3870 C.3       1 G           0.1128
     53 C4'        48.9440  -14.1970  -15.5970 C.3       1 G           0.1243
     54 O4'        48.7960  -15.1430  -14.5050 O.3       1 G          -0.3343
     55 C3'        50.1630  -14.6470  -16.3830 C.3       1 G           0.1541
     56 O3'        51.2960  -13.9790  -15.8690 O.3       1 G          -0.2453
     57 C2'        50.2740  -16.1260  -16.0370 C.3       1 G           0.1461
     58 O2'        51.5810  -16.6410  -16.1440 O.3       1 G          -0.3831
     59 C1'        49.8010  -16.1370  -14.5920 C.3       1 G           0.2222
     60 N9         49.2210  -17.4140  -14.1620 N.pl3     1 G          -0.0954
     61 C8         48.1530  -18.0740  -14.7330 C.2       1 G           0.1855
     62 N7         47.8450  -19.1910  -14.1270 N.2       1 G          -0.1929
     63 C5         48.7640  -19.2780  -13.0870 C.2       1 G           0.2558
     64 C6         48.9220  -20.2840  -12.0930 C.2       1 G           0.2628
     65 O6         48.2610  -21.3190  -11.9350 O.2       1 G          -0.3594
     66 N1         49.9760  -19.9860  -11.2350 N.am      1 G          -0.2478
     67 C2         50.7690  -18.8680  -11.3250 C.cat     1 G           0.2041
     68 N2         51.7230  -18.7780  -10.3930 N.pl3     1 G          -0.3327
     69 N3         50.6430  -17.9170  -12.2500 N.pl3     1 G          -0.1901
     70 C4         49.6200  -18.1850  -13.0920 C.2       1 G           0.3268
     71 P          52.4710  -13.5840  -16.8660 P.3       1 G           0.2557
     72 OP1        53.3910  -14.7480  -16.9920 O.co2     1 G          -0.6177
     73 O5'        53.2390  -12.4260  -16.1110 O.3       1 G          -0.2514
     74 C5'        53.5760  -11.2430  -16.8070 C.3       1 G           0.1127
     75 C4'        53.1860  -10.0310  -16.0170 C.3       1 G           0.1234
     76 C3'        54.2340   -8.9290  -16.0290 C.3       1 G           0.1486
     77 O3'        53.5750   -7.6750  -15.9020 O.3       1 G          -0.2675
     78 C2'        55.0330   -9.2280  -14.7660 C.3       1 G           0.1417
     79 O2'        55.7610   -8.1330  -14.2470 O.3       1 G          -0.3834
     80 C1'        53.9260   -9.6850  -13.8200 C.3       1 G           0.1991
     81 O4'        53.0130  -10.4110  -14.6220 O.3       1 G          -0.3373
     82 N1         54.3800  -10.5460  -12.7200 N.am      1 G          -0.1787
     83 C6         54.2940  -11.9070  -12.7740 C.2       1 G           0.0347
     84 C5         54.7120  -12.6690  -11.7490 C.2       1 G           0.0021
     85 C4         55.2390  -12.0120  -10.5990 C.cat     1 G           0.2477
     86 N4         55.6610  -12.7270   -9.5490 N.pl3     1 G          -0.2260
     87 N3         55.3300  -10.6830  -10.5370 N.am      1 G          -0.1994
     88 C2         54.9010   -9.9260  -11.5830 C.2       1 G           0.3024
     89 O2         54.9580   -8.6850  -11.5800 O.2       1 G          -0.3877
     90 OP2        51.8220  -12.9700  -18.0530 O.co2     1 G          -0.6177
     91 P2         54.2600   -6.3580  -16.4940 P.3       1 G           0.2013
     92 OP4        54.3320   -5.3880  -15.3710 O.co2     1 G          -0.5537
     93 OP5        53.2130   -5.8410  -17.5870 O.co2     1 G          -0.5537
     94 OP6        55.4850   -6.8010  -17.2080 O.co2     1 G          -0.5537
     95 H1         38.9544  -15.0030  -18.2785 H         1 G           0.0639
     96 H2         38.9830  -16.6981  -18.8721 H         1 G           0.0639
     97 H3         39.9312  -16.3127  -16.5878 H         1 G           0.0654
     98 H4         38.5793  -18.5788  -17.3755 H         1 G           0.0712
     99 H5         36.4234  -17.8573  -16.5511 H         1 G           0.0681
    100 H6         37.5826  -19.0631  -14.2571 H         1 G           0.2102
    101 H7         37.7679  -16.8051  -14.0144 H         1 G           0.1022
    102 H8         35.8233  -14.7880  -16.6189 H         1 G           0.1823
    103 H9         32.5184  -16.2930  -11.3590 H         1 G           0.1819
    104 H10        35.2517  -18.2903  -10.5569 H         1 G           0.1774
    105 H11        33.6330  -17.7009  -10.0930 H         1 G           0.1774
    106 H12        36.2435  -17.5579  -12.5876 H         1 G           0.2519
    107 H13        43.5186  -18.0396  -16.2216 H         1 G           0.0647
    108 H14        42.3560  -16.8780  -15.4965 H         1 G           0.0647
    109 H15        43.4554  -16.7967  -18.3250 H         1 G           0.0655
    110 H16        44.8706  -15.9411  -16.1119 H         1 G           0.0712
    111 H17        43.1654  -14.4152  -15.3318 H         1 G           0.0681
    112 H18        44.6482  -12.8327  -17.1539 H         1 G           0.2102
    113 H19        42.7673  -13.5250  -18.2234 H         1 G           0.1022
    114 H20        40.7898  -12.0695  -18.4859 H         1 G           0.1823
    115 H21        38.3715  -13.5850  -12.7277 H         1 G           0.1819
    116 H22        40.9980  -15.8202  -12.5053 H         1 G           0.1774
    117 H23        39.5484  -15.1104  -11.7455 H         1 G           0.1774
    118 H24        41.6820  -15.0745  -14.6631 H         1 G           0.2519
    119 H25        46.8750  -13.6960  -15.7709 H         1 G           0.0647
    120 H26        47.8190  -13.5459  -17.2918 H         1 G           0.0647
    121 H27        49.1346  -13.1904  -15.1964 H         1 G           0.0655
    122 H28        50.0527  -14.4761  -17.4640 H         1 G           0.0712
    123 H29        49.6070  -16.7224  -16.6768 H         1 G           0.0681
    124 H30        52.1554  -16.1694  -15.5522 H         1 G           0.2102
    125 H31        50.6452  -15.8900  -13.9315 H         1 G           0.1022
    126 H32        47.6177  -17.7007  -15.6048 H         1 G           0.1823
    127 H33        50.1706  -20.6336  -10.4983 H         1 G           0.1819
    128 H34        52.3627  -17.9708  -10.3871 H         1 G           0.1774
    129 H35        51.8184  -19.5159   -9.6807 H         1 G           0.1774
    130 H36        51.2470  -17.0852  -12.3150 H         1 G           0.2519
    131 H37        53.0481  -11.2296  -17.7720 H         1 G           0.0647
    132 H38        54.6617  -11.2248  -16.9826 H         1 G           0.0647
    133 H39        52.2424   -9.6364  -16.4219 H         1 G           0.0654
    134 H40        54.8606   -8.9540  -16.9327 H         1 G           0.0704
    135 H41        55.7431  -10.0466  -14.9547 H         1 G           0.0678
    136 H42        56.2268   -8.4058  -13.4652 H         1 G           0.2101
    137 H43        53.4339   -8.8005  -13.3892 H         1 G           0.0976
    138 H44        53.8801  -12.3830  -13.6617 H         1 G           0.0999
    139 H45        54.6500  -13.7552  -11.7955 H         1 G           0.0163
    140 H46        56.0412  -12.2489   -8.7197 H         1 G           0.4596
    141 H47        55.6055  -13.7553   -9.5704 H         1 G           0.4596
    142 H48        55.7125  -10.2440   -9.7240 H         1 G           0.1927
@<TRIPOS>BOND
     1    1    2 ar 
     2    2    3 ar 
     3    2    4 ar 
     4    2    5 1  
     5    5    6 1  
     6    6    7 1  
     7    7    8 1  
     8    7    9 1  
     9    8   13 1  
    10    9   10 1  
    11    9   11 1  
    12   10   25 1  
    13   11   12 1  
    14   11   13 1  
    15   13   14 1  
    16   14   15 1  
    17   14   24 1  
    18   15   16 2  
    19   16   17 1  
    20   17   18 1  
    21   17   24 2  
    22   18   19 2  
    23   18   20 am 
    24   20   21 ar 
    25   21   22 ar 
    26   21   23 ar 
    27   23   24 1  
    28   25   26 ar 
    29   25   27 ar 
    30   25   28 1  
    31   28   29 1  
    32   29   30 1  
    33   30   31 1  
    34   30   32 1  
    35   31   36 1  
    36   32   33 1  
    37   32   34 1  
    38   33   48 1  
    39   34   35 1  
    40   34   36 1  
    41   36   37 1  
    42   37   38 1  
    43   37   47 1  
    44   38   39 2  
    45   39   40 1  
    46   40   41 1  
    47   40   47 2  
    48   41   42 2  
    49   41   43 am 
    50   43   44 ar 
    51   44   45 ar 
    52   44   46 ar 
    53   46   47 1  
    54   48   49 ar 
    55   48   50 ar 
    56   48   51 1  
    57   51   52 1  
    58   52   53 1  
    59   53   54 1  
    60   53   55 1  
    61   54   59 1  
    62   55   56 1  
    63   55   57 1  
    64   56   71 1  
    65   57   58 1  
    66   57   59 1  
    67   59   60 1  
    68   60   61 1  
    69   60   70 1  
    70   61   62 2  
    71   62   63 1  
    72   63   64 1  
    73   63   70 2  
    74   64   65 2  
    75   64   66 am 
    76   66   67 ar 
    77   67   68 ar 
    78   67   69 ar 
    79   69   70 1  
    80   71   72 ar 
    81   71   73 1  
    82   71   90 ar 
    83   73   74 1  
    84   74   75 1  
    85   75   76 1  
    86   75   81 1  
    87   76   77 1  
    88   76   78 1  
    89   77   91 1  
    90   78   79 1  
    91   78   80 1  
    92   80   81 1  
    93   80   82 1  
    94   82   83 1  
    95   82   88 am 
    96   83   84 2  
    97   84   85 1  
    98   85   86 ar 
    99   85   87 ar 
   100   87   88 am 
   101   88   89 2  
   102   91   92 ar 
   103   91   93 ar 
   104   91   94 ar 
   105    6   95 1  
   106    6   96 1  
   107    7   97 1  
   108    9   98 1  
   109   11   99 1  
   110   12  100 1  
   111   13  101 1  
   112   15  102 1  
   113   20  103 1  
   114   22  104 1  
   115   22  105 1  
   116   23  106 1  
   117   29  107 1  
   118   29  108 1  
   119   30  109 1  
   120   32  110 1  
   121   34  111 1  
   122   35  112 1  
   123   36  113 1  
   124   38  114 1  
   125   43  115 1  
   126   45  116 1  
   127   45  117 1  
   128   46  118 1  
   129   52  119 1  
   130   52  120 1  
   131   53  121 1  
   132   55  122 1  
   133   57  123 1  
   134   58  124 1  
   135   59  125 1  
   136   61  126 1  
   137   66  127 1  
   138   68  128 1  
   139   68  129 1  
   140   69  130 1  
   141   74  131 1  
   142   74  132 1  
   143   75  133 1  
   144   76  134 1  
   145   78  135 1  
   146   79  136 1  
   147   80  137 1  
   148   83  138 1  
   149   84  139 1  
   150   86  140 1  
   151   86  141 1  
   152   87  142 1  
@<TRIPOS>SUBSTRUCTURE
     1 G           1

