### 
### Created by X-TOOL on Sat Nov 28 16:05:51 2015
### 

@<TRIPOS>MOLECULE
4kva_ligand
   45    47     1     0     0
SMALL
GAST_HUCK


@<TRIPOS>ATOM
      1 PG        -39.0700  -19.7150  106.4760 P.3       1 GTP         0.1879
      2 O1G       -40.4070  -20.4090  106.3980 O.co2     1 GTP        -0.6091
      3 O2G       -39.0390  -18.5820  105.4790 O.co2     1 GTP        -0.6091
      4 O3G       -37.9730  -20.6990  106.1430 O.co2     1 GTP        -0.6091
      5 O3B       -38.8210  -19.0910  107.9470 O.3       1 GTP        -0.1546
      6 PB        -39.8830  -19.1450  109.1640 P.3       1 GTP         0.3553
      7 O1B       -40.8100  -20.3320  109.0560 O.co2     1 GTP        -0.5652
      8 O2B       -40.6660  -17.8570  109.2030 O.co2     1 GTP        -0.5652
      9 O3A       -38.9810  -19.2940  110.4930 O.3       1 GTP        -0.1171
     10 PA        -38.8900  -20.6900  111.2930 P.3       1 GTP         0.3266
     11 O1A       -38.6800  -21.8230  110.3150 O.co2     1 GTP        -0.5692
     12 O2A       -40.1190  -20.9220  112.1400 O.co2     1 GTP        -0.5692
     13 O5'       -37.5710  -20.5640  112.2020 O.3       1 GTP        -0.2441
     14 C5'       -36.6140  -19.5450  112.0300 C.3       1 GTP         0.1131
     15 C4'       -35.5120  -19.7840  113.0530 C.3       1 GTP         0.1190
     16 O4'       -35.7510  -18.9200  114.1450 O.3       1 GTP        -0.3347
     17 C3'       -35.5800  -21.2080  113.5790 C.3       1 GTP         0.1151
     18 O3'       -34.2990  -21.7910  113.5460 O.3       1 GTP        -0.3864
     19 C2'       -36.0510  -21.0920  115.0130 C.3       1 GTP         0.1407
     20 O2'       -35.2920  -21.9200  115.8610 O.3       1 GTP        -0.3835
     21 C1'       -35.8500  -19.6290  115.3630 C.3       1 GTP         0.2218
     22 N9        -37.0050  -19.1160  116.1160 N.pl3     1 GTP        -0.0954
     23 C8        -38.3160  -19.4840  115.9610 C.2       1 GTP         0.1855
     24 N7        -39.0640  -18.7790  116.8400 N.2       1 GTP        -0.1929
     25 C5        -38.2480  -17.9700  117.5530 C.2       1 GTP         0.2558
     26 C6        -38.4870  -17.0530  118.5690 C.2       1 GTP         0.2628
     27 O6        -39.6320  -16.8640  118.9740 O.2       1 GTP        -0.3594
     28 N1        -37.4330  -16.3550  119.1210 N.am      1 GTP        -0.2478
     29 C2        -36.1490  -16.5700  118.6620 C.cat     1 GTP         0.2041
     30 N2        -35.1300  -15.8980  119.1890 N.pl3     1 GTP        -0.3327
     31 N3        -35.9190  -17.4840  117.6530 N.pl3     1 GTP        -0.1901
     32 C4        -36.9510  -18.1710  117.1070 C.2       1 GTP         0.3268
     33 H         -37.0768  -18.5613  112.1977 H         1 GTP         0.0648
     34 H         -36.1986  -19.5861  111.0123 H         1 GTP         0.0648
     35 H         -34.5264  -19.5882  112.6055 H         1 GTP         0.0651
     36 H         -36.2825  -21.8105  112.9845 H         1 GTP         0.0648
     37 H         -34.3485  -22.6805  113.8759 H         1 GTP         0.2100
     38 H         -37.1133  -21.3658  115.0936 H         1 GTP         0.0677
     39 H         -34.3784  -21.6631  115.8179 H         1 GTP         0.2101
     40 H         -34.9326  -19.5043  115.9569 H         1 GTP         0.1021
     41 H         -38.6916  -20.2191  115.2508 H         1 GTP         0.1823
     42 H         -37.5989  -15.6940  119.8528 H         1 GTP         0.1819
     43 H         -34.1729  -16.0603  118.8447 H         1 GTP         0.1774
     44 H         -35.2976  -15.2151  119.9416 H         1 GTP         0.1774
     45 H         -34.9595  -17.6440  117.3143 H         1 GTP         0.2519
@<TRIPOS>BOND
     1    1    2 ar 
     2    1    3 ar 
     3    1    4 ar 
     4    1    5 1  
     5    5    6 1  
     6    6    7 ar 
     7    6    8 ar 
     8    6    9 1  
     9    9   10 1  
    10   10   11 ar 
    11   10   12 ar 
    12   10   13 1  
    13   13   14 1  
    14   14   15 1  
    15   15   16 1  
    16   15   17 1  
    17   16   21 1  
    18   17   18 1  
    19   17   19 1  
    20   19   20 1  
    21   19   21 1  
    22   21   22 1  
    23   22   23 1  
    24   22   32 1  
    25   23   24 2  
    26   24   25 1  
    27   25   26 1  
    28   25   32 2  
    29   26   27 2  
    30   26   28 am 
    31   28   29 ar 
    32   29   30 ar 
    33   29   31 ar 
    34   31   32 1  
    35   14   33 1  
    36   14   34 1  
    37   15   35 1  
    38   17   36 1  
    39   18   37 1  
    40   19   38 1  
    41   20   39 1  
    42   21   40 1  
    43   23   41 1  
    44   28   42 1  
    45   30   43 1  
    46   30   44 1  
    47   31   45 1  
@<TRIPOS>SUBSTRUCTURE
     1 GTP         1

