### 
### Created by X-TOOL on Fri Sep 26 17:34:27 2014
### 

@<TRIPOS>MOLECULE
1osv_ligand
   73    76     1     0     0
SMALL
GAST_HUCK


@<TRIPOS>ATOM
      1 C1          8.1840   35.1620   16.2230 C.3       1 MOL        -0.0448
      2 C2          8.4170   34.1640   17.4020 C.3       1 MOL        -0.0263
      3 C3          7.6930   34.7220   18.7130 C.3       1 MOL         0.0556
      4 O3          7.8730   33.8450   19.7620 O.3       1 MOL        -0.3918
      5 C4          8.2630   36.1690   19.1190 C.3       1 MOL        -0.0232
      6 C5          8.0750   37.2330   17.8970 C.3       1 MOL        -0.0279
      7 C6          8.6470   38.6960   18.1960 C.3       1 MOL        -0.0115
      8 C7         10.2460   38.7190   18.2750 C.3       1 MOL         0.0617
      9 O7         10.7480   37.9790   19.4540 O.3       1 MOL        -0.3912
     10 C8         10.9310   38.1380   16.9810 C.3       1 MOL        -0.0080
     11 C9         10.4430   36.6090   16.7030 C.3       1 MOL        -0.0299
     12 C10         8.7680   36.6150   16.5080 C.3       1 MOL        -0.0256
     13 C11        11.1790   36.0700   15.4650 C.3       1 MOL        -0.0489
     14 C12        12.7550   36.0600   15.5890 C.3       1 MOL        -0.0468
     15 C13        13.2940   37.5270   15.8220 C.3       1 MOL        -0.0258
     16 C14        12.5310   38.1110   17.0740 C.3       1 MOL        -0.0299
     17 C15        13.2940   39.4950   17.3090 C.3       1 MOL        -0.0491
     18 C16        14.7170   38.9970   17.2980 C.3       1 MOL        -0.0492
     19 C17        14.8150   37.6990   16.3720 C.3       1 MOL        -0.0327
     20 C18        12.9790   38.3930   14.4630 C.3       1 MOL        -0.0590
     21 C19         8.3320   37.3690   15.2560 C.3       1 MOL        -0.0590
     22 C20        15.9590   37.8080   15.2380 C.3       1 MOL        -0.0390
     23 C21        15.9720   36.4330   14.3830 C.3       1 MOL        -0.0620
     24 C22        17.3610   38.0110   15.8150 C.3       1 MOL        -0.0386
     25 C23        18.4670   38.1220   14.6950 C.3       1 MOL         0.0004
     26 C24        19.8820   38.3250   15.1140 C.2       1 MOL         0.0348
     27 C25         6.7350   39.2900   19.9220 C.3       1 MOL        -0.0649
     28 C26         8.2140   39.1380   19.5640 C.3       1 MOL        -0.0504
     29 OT1        20.3510   39.4660   15.0030 O.co2     1 MOL        -0.5690
     30 OT2        20.5410   37.3480   15.5400 O.co2     1 MOL        -0.5690
     31 H1          7.1017   35.2485   16.0466 H         1 MOL         0.0271
     32 H2          8.6713   34.7596   15.3226 H         1 MOL         0.0271
     33 H3          9.4959   34.0640   17.5918 H         1 MOL         0.0290
     34 H4          7.9981   33.1811   17.1404 H         1 MOL         0.0290
     35 H5          6.6165   34.8133   18.5062 H         1 MOL         0.0593
     36 H6          7.4394   34.1853   20.5358 H         1 MOL         0.2098
     37 H7          9.3331   36.0804   19.3578 H         1 MOL         0.0293
     38 H8          7.7192   36.5354   20.0022 H         1 MOL         0.0293
     39 H9          6.9943   37.3387   17.7211 H         1 MOL         0.0310
     40 H10         8.2891   39.3927   17.4237 H         1 MOL         0.0328
     41 H11        10.5530   39.7704   18.3759 H         1 MOL         0.0599
     42 H12        11.6973   38.0140   19.4679 H         1 MOL         0.2098
     43 H13        10.6383   38.7703   16.1298 H         1 MOL         0.0331
     44 H14        10.6975   35.9780   17.5674 H         1 MOL         0.0310
     45 H15        10.9066   36.6975   14.6036 H         1 MOL         0.0268
     46 H16        10.8422   35.0379   15.2879 H         1 MOL         0.0268
     47 H17        13.1897   35.6562   14.6627 H         1 MOL         0.0271
     48 H18        13.0485   35.4260   16.4386 H         1 MOL         0.0271
     49 H19        12.7507   37.4627   17.9351 H         1 MOL         0.0310
     50 H20        13.0266   39.9529   18.2727 H         1 MOL         0.0268
     51 H21        13.1036   40.2121   16.4969 H         1 MOL         0.0268
     52 H22        15.0248   38.7414   18.3226 H         1 MOL         0.0268
     53 H23        15.3779   39.7819   16.9016 H         1 MOL         0.0268
     54 H24        15.0668   36.8277   16.9945 H         1 MOL         0.0309
     55 H25        11.9365   38.2253   14.1548 H         1 MOL         0.0235
     56 H26        13.6557   38.0709   13.6578 H         1 MOL         0.0235
     57 H27        13.1337   39.4630   14.6659 H         1 MOL         0.0235
     58 H28         7.2352   37.3432   15.1758 H         1 MOL         0.0235
     59 H29         8.7758   36.8940   14.3687 H         1 MOL         0.0235
     60 H30         8.6704   38.4136   15.3206 H         1 MOL         0.0235
     61 H31        15.7206   38.6546   14.5774 H         1 MOL         0.0302
     62 H32        16.7476   36.4922   13.6052 H         1 MOL         0.0233
     63 H33        14.9896   36.2856   13.9106 H         1 MOL         0.0233
     64 H34        16.1877   35.5871   15.0522 H         1 MOL         0.0233
     65 H35        17.6019   37.1567   16.4647 H         1 MOL         0.0286
     66 H36        17.3670   38.9367   16.4092 H         1 MOL         0.0286
     67 H37        18.1936   38.9709   14.0510 H         1 MOL         0.0430
     68 H38        18.4316   37.1914   14.1097 H         1 MOL         0.0430
     69 H39         6.6429   39.6213   20.9669 H         1 MOL         0.0230
     70 H40         6.2264   38.3226   19.7979 H         1 MOL         0.0230
     71 H41         6.2719   40.0355   19.2589 H         1 MOL         0.0230
     72 H42         8.6773   40.1210   19.7340 H         1 MOL         0.0266
     73 H43         8.6318   38.4081   20.2730 H         1 MOL         0.0266
@<TRIPOS>BOND
     1    1    2 1  
     2    1   12 1  
     3    2    3 1  
     4    3    4 1  
     5    3    5 1  
     6    5    6 1  
     7    6    7 1  
     8    6   12 1  
     9    7    8 1  
    10    7   28 1  
    11    8    9 1  
    12    8   10 1  
    13   10   11 1  
    14   10   16 1  
    15   11   12 1  
    16   11   13 1  
    17   12   21 1  
    18   13   14 1  
    19   14   15 1  
    20   15   16 1  
    21   15   19 1  
    22   15   20 1  
    23   16   17 1  
    24   17   18 1  
    25   18   19 1  
    26   19   22 1  
    27   22   23 1  
    28   22   24 1  
    29   24   25 1  
    30   25   26 1  
    31   26   29 ar 
    32   26   30 ar 
    33   28   27 1  
    34    1   31 1  
    35    1   32 1  
    36    2   33 1  
    37    2   34 1  
    38    3   35 1  
    39    4   36 1  
    40    5   37 1  
    41    5   38 1  
    42    6   39 1  
    43    7   40 1  
    44    8   41 1  
    45    9   42 1  
    46   10   43 1  
    47   11   44 1  
    48   13   45 1  
    49   13   46 1  
    50   14   47 1  
    51   14   48 1  
    52   16   49 1  
    53   17   50 1  
    54   17   51 1  
    55   18   52 1  
    56   18   53 1  
    57   19   54 1  
    58   20   55 1  
    59   20   56 1  
    60   20   57 1  
    61   21   58 1  
    62   21   59 1  
    63   21   60 1  
    64   22   61 1  
    65   23   62 1  
    66   23   63 1  
    67   23   64 1  
    68   24   65 1  
    69   24   66 1  
    70   25   67 1  
    71   25   68 1  
    72   27   69 1  
    73   27   70 1  
    74   27   71 1  
    75   28   72 1  
    76   28   73 1  
@<TRIPOS>SUBSTRUCTURE
     1 MOL         1

