### 
### Created by X-TOOL on Fri Sep 26 17:34:44 2014
### 

@<TRIPOS>MOLECULE
3fxz_ligand
   64    72     1     0     0
SMALL
GAST_HUCK


@<TRIPOS>ATOM
      1 F2        -17.0160   35.3940  -16.1810 F         1 FLL        -0.1752
      2 C38       -15.6820   35.2860  -16.1360 C.ar      1 FLL         0.1606
      3 C39       -15.0430   35.2100  -17.3820 C.ar      1 FLL         0.0448
      4 N23       -13.7110   35.1140  -17.4080 N.ar      1 FLL        -0.2925
      5 N21       -10.9530   34.9100  -17.4980 N.pl3     1 FLL        -0.2710
      6 N16       -12.6970   32.8090  -18.6480 N.ar      1 FLL        -0.3222
      7 C11       -12.0240   32.0330  -17.7620 C.ar      1 FLL        -0.0124
      8 C12       -12.3400   30.6760  -17.5760 C.ar      1 FLL        -0.0512
      9 C10       -13.3890   30.1500  -18.3100 C.ar      1 FLL        -0.0588
     10 C9        -14.1220   30.9240  -19.1990 C.ar      1 FLL        -0.0453
     11 C8        -13.7440   32.2600  -19.3320 C.ar      1 FLL         0.0444
     12 C7        -14.4210   33.1830  -20.2260 C.2       1 FLL         0.0557
     13 C13       -12.2770   36.6640  -19.3780 C.2       1 FLL         0.0939
     14 O14       -12.2040   37.7900  -19.7060 O.2       1 FLL        -0.3565
     15 N15       -13.9640   34.3980  -20.2620 N.pl3     1 FLL        -0.2701
     16 C18       -14.5870   35.3320  -21.1920 C.ar      1 FLL         0.0708
     17 C19       -15.8410   35.8340  -20.9340 C.ar      1 FLL        -0.0354
     18 C3        -16.4190   36.7400  -21.8100 C.ar      1 FLL        -0.0703
     19 C4        -15.7300   37.1340  -22.9500 C.ar      1 FLL        -0.0726
     20 C6        -14.4660   36.6450  -23.2260 C.ar      1 FLL        -0.0703
     21 C5        -13.8910   35.7310  -22.3300 C.ar      1 FLL        -0.0354
     22 CL17      -10.8740   34.2590  -20.7720 Cl        1 FLL        -0.1454
     23 C37       -15.0480   35.2380  -14.9310 C.ar      1 FLL        -0.0037
     24 C36       -13.6300   35.1280  -14.9410 C.ar      1 FLL         0.0175
     25 C40       -13.0150   35.0590  -16.2180 C.ar      1 FLL         0.0794
     26 C35       -12.7330   35.0550  -13.8300 C.ar      1 FLL         0.0706
     27 C34       -13.0410   35.0760  -12.4040 C.2       1 FLL         0.2286
     28 N22       -11.8420   34.9720  -11.7310 N.am      1 FLL        -0.2005
     29 O42       -14.1500   35.1460  -11.9100 O.2       1 FLL        -0.3730
     30 C32       -11.3520   34.9420  -13.9640 C.ar      1 FLL         0.0684
     31 C33       -10.7690   34.8810  -12.5920 C.2       1 FLL         0.2369
     32 O41        -9.5930   34.8070  -12.2740 O.2       1 FLL        -0.3649
     33 C31       -10.7440   34.8830  -15.2180 C.ar      1 FLL         0.0208
     34 C24       -11.6060   34.9370  -16.3320 C.ar      1 FLL         0.0982
     35 C30        -9.4190   34.7670  -15.7820 C.ar      1 FLL        -0.0084
     36 C25        -9.6080   34.7710  -17.1930 C.ar      1 FLL         0.0609
     37 C29        -8.1590   34.6540  -15.2130 C.ar      1 FLL        -0.0399
     38 C28        -7.0640   34.5480  -16.0640 C.ar      1 FLL         0.0749
     39 O1         -5.7990   34.4440  -15.5800 O.3       1 FLL        -0.3406
     40 C27        -7.2510   34.5640  -17.4530 C.ar      1 FLL        -0.0417
     41 C26        -8.4930   34.6520  -18.0290 C.ar      1 FLL        -0.0446
     42 RU20      -12.4020   34.8750  -19.0280 Ru        1 FLL         6.0000
     43 H1        -15.6162   35.2287  -18.3018 H         1 FLL         0.0843
     44 H2        -11.3677   34.9789  -18.4383 H         1 FLL         0.2202
     45 H3        -11.2204   32.4714  -17.1814 H         1 FLL         0.0782
     46 H4        -11.7803   30.0614  -16.8803 H         1 FLL         0.0575
     47 H5        -13.6454   29.1039  -18.1871 H         1 FLL         0.0666
     48 H6        -14.9495   30.5096  -19.7635 H         1 FLL         0.0630
     49 H7        -15.2686   32.8720  -20.8350 H         1 FLL         0.0990
     50 H8        -13.2461   36.2278  -19.1405 H         1 FLL         0.1313
     51 H9        -11.3755   36.0567  -19.3116 H         1 FLL         0.1313
     52 H10       -13.1868   34.6922  -19.6534 H         1 FLL         0.2284
     53 H11       -16.3777   35.5213  -20.0456 H         1 FLL         0.0549
     54 H12       -17.4057   37.1397  -21.6059 H         1 FLL         0.0589
     55 H13       -16.1908   37.8366  -23.6349 H         1 FLL         0.0526
     56 H14       -13.9315   36.9608  -24.1146 H         1 FLL         0.0589
     57 H15       -12.9012   35.3340  -22.5245 H         1 FLL         0.0549
     58 H16        -9.8661   34.2729  -20.7770 H         1 FLL         0.1454
     59 H17       -15.6028   35.2819  -14.0008 H         1 FLL         0.0718
     60 H18       -11.7602   34.9636  -10.7344 H         1 FLL         0.2208
     61 H19        -8.0315   34.6485  -14.1365 H         1 FLL         0.0485
     62 H20        -5.1871   34.3816  -16.3040 H         1 FLL         0.2444
     63 H21        -6.3809   34.5046  -18.0968 H         1 FLL         0.0515
     64 H22        -8.6075   34.6298  -19.1067 H         1 FLL         0.0529
@<TRIPOS>BOND
     1    2    1 1  
     2    3    2 ar 
     3    2   23 ar 
     4    4    3 ar 
     5    4   25 ar 
     6    5   34 1  
     7    5   36 1  
     8    6    7 ar 
     9    6   11 ar 
    10    7    8 ar 
    11    8    9 ar 
    12   10    9 ar 
    13   11   10 ar 
    14   11   12 1  
    15   12   15 1  
    16   13   14 2  
    17   15   16 1  
    18   16   17 ar 
    19   16   21 ar 
    20   17   18 ar 
    21   18   19 ar 
    22   20   19 ar 
    23   21   20 ar 
    24   24   23 ar 
    25   25   24 ar 
    26   24   26 ar 
    27   34   25 ar 
    28   26   27 1  
    29   30   26 ar 
    30   27   28 am 
    31   27   29 2  
    32   31   28 am 
    33   30   31 1  
    34   33   30 ar 
    35   31   32 2  
    36   34   33 ar 
    37   35   33 1  
    38   36   35 ar 
    39   35   37 ar 
    40   36   41 ar 
    41   37   38 ar 
    42   38   39 1  
    43   40   38 ar 
    44   41   40 ar 
    45   42    4 1  
    46   42    5 1  
    47   42    6 1  
    48   42   13 1  
    49   42   15 1  
    50   42   22 1  
    51    3   43 1  
    52    5   44 1  
    53    7   45 1  
    54    8   46 1  
    55    9   47 1  
    56   10   48 1  
    57   12   49 1  
    58   13   50 1  
    59   13   51 1  
    60   15   52 1  
    61   17   53 1  
    62   18   54 1  
    63   19   55 1  
    64   20   56 1  
    65   21   57 1  
    66   22   58 1  
    67   23   59 1  
    68   28   60 1  
    69   37   61 1  
    70   39   62 1  
    71   40   63 1  
    72   41   64 1  
@<TRIPOS>SUBSTRUCTURE
     1 FLL         1

