### 
### Created by X-TOOL on Sun Nov 13 14:29:21 2016
### 

@<TRIPOS>MOLECULE
4x6h_ligand
   34    35     1     0     0
SMALL
GAST_HUCK


@<TRIPOS>ATOM
      1 C6         15.9330    6.4410  -19.1960 C.3       1 I37         0.0413
      2 C7         15.9720    5.2200  -18.2860 C.3       1 I37        -0.0300
      3 C8         16.8670    4.1290  -18.7820 C.3       1 I37        -0.0510
      4 C9         16.5370    3.7310  -20.2560 C.3       1 I37        -0.0529
      5 C10        16.5390    4.9420  -21.1350 C.3       1 I37        -0.0510
      6 C11        15.5380    6.0100  -20.6170 C.3       1 I37        -0.0300
      7 N12        17.2650    7.0660  -19.1880 N.am      1 I37        -0.2851
      8 C13        17.4980    8.2510  -19.8020 C.2       1 I37         0.1945
      9 O14        16.6140    8.8180  -20.4580 O.2       1 I37        -0.3909
     10 C15        18.7780    8.9380  -19.5000 C.ar      1 I37         0.0343
     11 C16        18.8610   10.2930  -19.7640 C.ar      1 I37        -0.0198
     12 C17        19.9970   10.9540  -19.4120 C.ar      1 I37         0.1540
     13 C18        21.0880   10.3520  -18.8210 C.ar      1 I37         0.0752
     14 C19        21.0390    8.9750  -18.6060 C.ar      1 I37        -0.0397
     15 C20        19.8840    8.2730  -18.9380 C.ar      1 I37        -0.0574
     16 N21        22.2290   11.1140  -18.4420 N.pl3     1 I37        -0.3339
     17 F22        20.0740   12.3060  -19.6570 F         1 I37        -0.1914
     18 H1         15.1909    7.1598  -18.8184 H         1 I37         0.0555
     19 H2         14.9514    4.8191  -18.1987 H         1 I37         0.0287
     20 H3         16.3275    5.5370  -17.2945 H         1 I37         0.0287
     21 H4         16.7416    3.2458  -18.1385 H         1 I37         0.0266
     22 H5         17.9102    4.4742  -18.7318 H         1 I37         0.0266
     23 H6         15.5438    3.2594  -20.2907 H         1 I37         0.0265
     24 H7         17.2937    3.0192  -20.6176 H         1 I37         0.0265
     25 H8         16.2527    4.6461  -22.1550 H         1 I37         0.0266
     26 H9         17.5504    5.3743  -21.1488 H         1 I37         0.0266
     27 H10        15.5585    6.8846  -21.2838 H         1 I37         0.0287
     28 H11        14.5239    5.5842  -20.6017 H         1 I37         0.0287
     29 H12        18.0172    6.6045  -18.7176 H         1 I37         0.1844
     30 H13        18.0399   10.8164  -20.2404 H         1 I37         0.0619
     31 H14        21.8924    8.4563  -18.1843 H         1 I37         0.0518
     32 H15        19.8357    7.2044  -18.7622 H         1 I37         0.0603
     33 H16        22.2480   12.1303  -18.6084 H         1 I37         0.1727
     34 H17        23.0356   10.6491  -18.0014 H         1 I37         0.1727
@<TRIPOS>BOND
     1    1    2 1  
     2    1    6 1  
     3    1    7 1  
     4    2    3 1  
     5    3    4 1  
     6    4    5 1  
     7    5    6 1  
     8    7    8 am 
     9    8    9 2  
    10    8   10 1  
    11   10   11 ar 
    12   10   15 ar 
    13   11   12 ar 
    14   12   13 ar 
    15   12   17 1  
    16   13   14 ar 
    17   13   16 1  
    18   14   15 ar 
    19    1   18 1  
    20    2   19 1  
    21    2   20 1  
    22    3   21 1  
    23    3   22 1  
    24    4   23 1  
    25    4   24 1  
    26    5   25 1  
    27    5   26 1  
    28    6   27 1  
    29    6   28 1  
    30    7   29 1  
    31   11   30 1  
    32   14   31 1  
    33   15   32 1  
    34   16   33 1  
    35   16   34 1  
@<TRIPOS>SUBSTRUCTURE
     1 I37         1

