### 
### Created by X-TOOL on Fri Sep 26 17:34:17 2014
### 

@<TRIPOS>MOLECULE
1ej4_ligand
   45    47     1     0     0
SMALL
GAST_HUCK


@<TRIPOS>ATOM
      1 PA          4.4390   -7.5840   21.8960 P.3       1 MOL         0.3276
      2 O1A         4.7420   -8.5490   20.8100 O.co2     1 MOL        -0.5556
      3 O2A         5.4820   -6.5270   21.8810 O.co2     1 MOL        -0.5556
      4 O3A         2.9920   -6.8960   21.6540 O.3       1 MOL        -0.1548
      5 O5          4.4310   -8.3380   23.3290 O.3       1 MOL        -0.2436
      6 PB          1.6190   -7.6460   22.0010 P.3       1 MOL         0.2069
      7 O1B         1.5860   -8.9580   21.2970 O.co2     1 MOL        -0.5891
      8 O2B         0.5000   -6.7970   21.5440 O.co2     1 MOL        -0.5891
      9 O3B         1.5260   -7.8370   23.4790 O.co2     1 MOL        -0.5891
     10 C5          4.2700   -9.7420   23.4440 C.3       1 MOL         0.1131
     11 C4          5.1090  -10.3780   24.4900 C.3       1 MOL         0.1181
     12 O4          6.3490  -10.6740   23.8410 O.3       1 MOL        -0.3437
     13 C3          5.6070   -9.4870   25.5900 C.3       1 MOL         0.1141
     14 O3          4.6640   -9.3920   26.6690 O.3       1 MOL        -0.3864
     15 C2          6.8350  -10.2790   26.1040 C.3       1 MOL         0.1303
     16 O2          6.4230  -11.4940   26.8480 O.3       1 MOL        -0.3844
     17 C1          7.4590  -10.6160   24.7600 C.3       1 MOL         0.1690
     18 N9          8.2840   -9.6010   24.0620 N.pl3     1 MOL        -0.2656
     19 C8          8.0200   -8.6530   23.1170 C.3       1 MOL         0.0992
     20 N7          9.1210   -8.0050   22.8440 N.pl3     1 MOL        -0.3187
     21 CM7         9.2290   -6.9120   21.8770 C.3       1 MOL         0.0060
     22 C5         10.3020   -8.5230   23.6660 C.2       1 MOL         0.1049
     23 C6         11.5680   -8.2720   23.8130 C.2       1 MOL         0.2109
     24 O6         12.1920   -7.3670   23.1870 O.2       1 MOL        -0.4227
     25 N1         12.1900   -9.1250   24.7640 N.am      1 MOL        -0.1887
     26 C2         11.5710  -10.1230   25.4820 C.2       1 MOL         0.2289
     27 N2         12.2900  -10.8230   26.3230 N.pl3     1 MOL        -0.2835
     28 N3         10.2480  -10.3900   25.3420 N.2       1 MOL        -0.2892
     29 C4          9.6100   -9.5600   24.4050 C.2       1 MOL         0.0803
     30 H1          4.5261  -10.1969   22.4758 H         1 MOL         0.0648
     31 H2          3.2152   -9.9480   23.6785 H         1 MOL         0.0648
     32 H3          4.6003  -11.2645   24.8967 H         1 MOL         0.0651
     33 H4          5.8725   -8.4866   25.2177 H         1 MOL         0.0648
     34 H5          5.0121   -8.8219   27.3445 H         1 MOL         0.2100
     35 H6          7.4988   -9.6657   26.7310 H         1 MOL         0.0668
     36 H7          7.1953  -11.9575   27.1499 H         1 MOL         0.2101
     37 H8          8.0098  -11.5645   24.8435 H         1 MOL         0.0890
     38 H9          7.2646   -7.9511   23.5000 H         1 MOL         0.0757
     39 H10         7.6415   -9.1373   22.2047 H         1 MOL         0.0757
     40 H11        10.2673   -6.5501   21.8472 H         1 MOL         0.0457
     41 H12         8.5627   -6.0898   22.1770 H         1 MOL         0.0457
     42 H13         8.9383   -7.2744   20.8800 H         1 MOL         0.0457
     43 H14        13.1671   -8.9877   24.9266 H         1 MOL         0.2504
     44 H15        11.8518  -11.5757   26.8729 H         1 MOL         0.1881
     45 H16        13.2938  -10.6210   26.4347 H         1 MOL         0.1881
@<TRIPOS>BOND
     1    1    2 ar 
     2    1    3 ar 
     3    1    4 1  
     4    1    5 1  
     5    4    6 1  
     6    5   10 1  
     7    6    7 ar 
     8    6    8 ar 
     9    6    9 ar 
    10   10   11 1  
    11   11   12 1  
    12   11   13 1  
    13   12   17 1  
    14   13   14 1  
    15   13   15 1  
    16   15   16 1  
    17   15   17 1  
    18   17   18 1  
    19   18   19 1  
    20   18   29 1  
    21   19   20 1  
    22   20   21 1  
    23   20   22 1  
    24   22   23 1  
    25   22   29 2  
    26   23   24 2  
    27   23   25 am 
    28   25   26 am 
    29   26   27 1  
    30   26   28 2  
    31   28   29 1  
    32   10   30 1  
    33   10   31 1  
    34   11   32 1  
    35   13   33 1  
    36   14   34 1  
    37   15   35 1  
    38   16   36 1  
    39   17   37 1  
    40   19   38 1  
    41   19   39 1  
    42   21   40 1  
    43   21   41 1  
    44   21   42 1  
    45   25   43 1  
    46   27   44 1  
    47   27   45 1  
@<TRIPOS>SUBSTRUCTURE
     1 MOL         1

