### 
### Created by X-TOOL on Fri Sep 26 17:34:21 2014
### 

@<TRIPOS>MOLECULE
1g9d_ligand
   86    92     1     0     0
SMALL
GAST_HUCK


@<TRIPOS>ATOM
      1 C1         12.7970    1.5250   29.4220 C.ar      1 BAB         0.0090
      2 C2         11.8870    2.5410   29.0520 C.ar      1 BAB        -0.0713
      3 C3         10.8570    2.2640   28.1380 C.ar      1 BAB        -0.0420
      4 C4         10.7790    0.9870   27.6320 C.ar      1 BAB         0.0787
      5 C5         11.6580    0.0090   27.9890 C.ar      1 BAB         0.0217
      6 C6         12.6750    0.2370   28.8790 C.ar      1 BAB        -0.0601
      7 C7         13.9050    1.8240   30.3980 C.cat     1 BAB         0.2286
      8 C8         10.1600   -0.9540   26.4540 C.2       1 BAB         0.1412
      9 C9          9.4500   -1.9130   25.5320 C.3       1 BAB         0.1108
     10 N1         13.6980    1.6090   31.8620 N.pl3     1 BAB        -0.2733
     11 N2         15.2140    2.3330   29.8950 N.pl3     1 BAB        -0.2733
     12 N3          9.8020    0.4580   26.6640 N.pl3     1 BAB        -0.2443
     13 N4         11.3340   -1.2520   27.2890 N.2       1 BAB        -0.3147
     14 C1'         9.3870    0.3060   19.7780 C.ar      1 BAB         0.0111
     15 C2'        10.7920    0.3040   19.9170 C.ar      1 BAB        -0.0732
     16 C3'        11.3810   -0.1450   21.1150 C.ar      1 BAB        -0.0653
     17 C4'        10.5410   -0.5680   22.1170 C.ar      1 BAB         0.0217
     18 C5'         9.1910   -0.5640   21.9720 C.ar      1 BAB         0.0787
     19 C6'         8.5810   -0.1360   20.8260 C.ar      1 BAB        -0.0368
     20 C7'         8.7440    0.7940   18.5110 C.cat     1 BAB         0.2293
     21 C8'         9.6230   -1.3810   24.1270 C.2       1 BAB         0.1412
     22 N1'         7.9710   -0.1130   17.6350 N.pl3     1 BAB        -0.2731
     23 N2'         8.8370    2.2230   18.1440 N.pl3     1 BAB        -0.2731
     24 N3'        10.9020   -1.0750   23.4540 N.2       1 BAB        -0.3147
     25 N4'         8.5440   -1.0610   23.1900 N.pl3     1 BAB        -0.2443
     26 C1         10.7300   -9.4620   23.6580 C.ar      1 BAB         0.0090
     27 C2          9.8430   -8.8330   24.5780 C.ar      1 BAB        -0.0713
     28 C3          8.7250   -8.1070   24.1030 C.ar      1 BAB        -0.0420
     29 C4          8.5430   -8.0410   22.7360 C.ar      1 BAB         0.0787
     30 C5          9.3990   -8.6510   21.8570 C.ar      1 BAB         0.0217
     31 C6         10.4960   -9.3630   22.2770 C.ar      1 BAB        -0.0601
     32 C7         11.9330  -10.2410   24.1410 C.cat     1 BAB         0.2286
     33 C8          7.7300   -7.6130   20.5580 C.2       1 BAB         0.1412
     34 C9          6.8770   -7.1460   19.4090 C.3       1 BAB         0.1108
     35 N1         11.7500  -11.5360   24.8800 N.pl3     1 BAB        -0.2733
     36 N2         13.3110   -9.7160   23.8620 N.pl3     1 BAB        -0.2733
     37 N3          7.4620   -7.3610   21.9900 N.pl3     1 BAB        -0.2443
     38 N4          8.9520   -8.4250   20.4650 N.2       1 BAB        -0.3147
     39 C1'         1.6580  -10.3520   20.7200 C.ar      1 BAB         0.0111
     40 C2'         1.0620   -9.2840   20.0330 C.ar      1 BAB        -0.0732
     41 C3'         1.8470   -8.2510   19.5110 C.ar      1 BAB        -0.0653
     42 C4'         3.1990   -8.2940   19.6790 C.ar      1 BAB         0.0217
     43 C5'         3.8070   -9.3240   20.3450 C.ar      1 BAB         0.0787
     44 C6'         3.0750  -10.3840   20.8910 C.ar      1 BAB        -0.0368
     45 C7'         0.7540  -11.4460   21.2600 C.cat     1 BAB         0.2293
     46 C8'         5.5190   -7.8070   19.6370 C.2       1 BAB         0.1412
     47 N1'         0.9390  -12.8650   20.7990 N.pl3     1 BAB        -0.2731
     48 N2'        -0.3590  -11.0920   22.2190 N.pl3     1 BAB        -0.2731
     49 N3'         4.2040   -7.2950   19.1980 N.2       1 BAB        -0.3147
     50 N4'         5.2760   -9.0980   20.3670 N.pl3     1 BAB        -0.2443
     51 H1         11.9840    3.5348   29.4739 H         1 BAB         0.0529
     52 H2         10.1487    3.0293   27.8418 H         1 BAB         0.0542
     53 H3         13.3638   -0.5533   29.1549 H         1 BAB         0.0536
     54 H4          8.3815   -1.9633   25.7885 H         1 BAB         0.0794
     55 H5          9.8945   -2.9158   25.6141 H         1 BAB         0.0794
     56 H6         14.4586    1.8149   32.5254 H         1 BAB         0.3180
     57 H7         12.7947    1.2549   32.2079 H         1 BAB         0.3180
     58 H8         15.3555    2.4808   28.8855 H         1 BAB         0.3180
     59 H9         15.9762    2.5366   30.5572 H         1 BAB         0.3180
     60 H10         9.0258    0.9722   26.2236 H         1 BAB         0.2324
     61 H11        11.4176    0.6482   19.1014 H         1 BAB         0.0516
     62 H12        12.4575   -0.1565   21.2420 H         1 BAB         0.0536
     63 H13         7.5009   -0.1402   20.7347 H         1 BAB         0.0541
     64 H14         7.5404    0.2479   16.7717 H         1 BAB         0.3180
     65 H15         7.8633   -1.1056   17.8882 H         1 BAB         0.3180
     66 H16         9.3698    2.8738   18.7386 H         1 BAB         0.3180
     67 H17         8.3690    2.5679   17.2937 H         1 BAB         0.3180
     68 H18         7.5324   -1.1645   23.3540 H         1 BAB         0.2324
     69 H19        10.0247   -8.9106   25.6439 H         1 BAB         0.0529
     70 H20         8.0378   -7.6213   24.7863 H         1 BAB         0.0542
     71 H21        11.1616   -9.8347   21.5632 H         1 BAB         0.0536
     72 H22         7.3086   -7.4683   18.4499 H         1 BAB         0.0794
     73 H23         6.7809   -6.0503   19.4181 H         1 BAB         0.0794
     74 H24        12.5723  -12.0630   25.2070 H         1 BAB         0.3180
     75 H25        10.8022  -11.8969   25.0597 H         1 BAB         0.3180
     76 H26        13.4307   -8.8275   23.3549 H         1 BAB         0.3180
     77 H27        14.1370  -10.2442   24.1776 H         1 BAB         0.3180
     78 H28         6.6803   -6.8209   22.3878 H         1 BAB         0.2324
     79 H29        -0.0142   -9.2592   19.9059 H         1 BAB         0.0516
     80 H30         1.3860   -7.4264   18.9794 H         1 BAB         0.0536
     81 H31         3.5626  -11.1943   21.4208 H         1 BAB         0.0541
     82 H32         0.3271  -13.6089   21.1638 H         1 BAB         0.3180
     83 H33         1.6776  -13.0932   20.1184 H         1 BAB         0.3180
     84 H34        -0.4799  -10.1177   22.5306 H         1 BAB         0.3180
     85 H35        -0.9967  -11.8250   22.5610 H         1 BAB         0.3180
     86 H36         5.9871   -9.7062   20.7976 H         1 BAB         0.2324
@<TRIPOS>BOND
     1    1    2 ar 
     2    6    1 ar 
     3    1    7 1  
     4    3    2 ar 
     5    4    3 ar 
     6    5    4 ar 
     7   12    4 1  
     8    5    6 ar 
     9   13    5 1  
    10    7   10 ar 
    11    7   11 ar 
    12    9    8 1  
    13    8   12 1  
    14    8   13 2  
    15   21    9 1  
    16   15   14 ar 
    17   19   14 ar 
    18   14   20 1  
    19   16   15 ar 
    20   17   16 ar 
    21   17   18 ar 
    22   24   17 1  
    23   18   19 ar 
    24   18   25 1  
    25   20   22 ar 
    26   20   23 ar 
    27   21   24 2  
    28   21   25 1  
    29   26   27 ar 
    30   31   26 ar 
    31   26   32 1  
    32   28   27 ar 
    33   29   28 ar 
    34   30   29 ar 
    35   37   29 1  
    36   30   31 ar 
    37   38   30 1  
    38   32   35 ar 
    39   32   36 ar 
    40   34   33 1  
    41   33   37 1  
    42   33   38 2  
    43   46   34 1  
    44   40   39 ar 
    45   44   39 ar 
    46   39   45 1  
    47   41   40 ar 
    48   42   41 ar 
    49   42   43 ar 
    50   49   42 1  
    51   43   44 ar 
    52   43   50 1  
    53   45   47 ar 
    54   45   48 ar 
    55   46   49 2  
    56   46   50 1  
    57    2   51 1  
    58    3   52 1  
    59    6   53 1  
    60    9   54 1  
    61    9   55 1  
    62   10   56 1  
    63   10   57 1  
    64   11   58 1  
    65   11   59 1  
    66   12   60 1  
    67   15   61 1  
    68   16   62 1  
    69   19   63 1  
    70   22   64 1  
    71   22   65 1  
    72   23   66 1  
    73   23   67 1  
    74   25   68 1  
    75   27   69 1  
    76   28   70 1  
    77   31   71 1  
    78   34   72 1  
    79   34   73 1  
    80   35   74 1  
    81   35   75 1  
    82   36   76 1  
    83   36   77 1  
    84   37   78 1  
    85   40   79 1  
    86   41   80 1  
    87   44   81 1  
    88   47   82 1  
    89   47   83 1  
    90   48   84 1  
    91   48   85 1  
    92   50   86 1  
@<TRIPOS>SUBSTRUCTURE
     1 BAB         1

