### 
### Created by X-TOOL on Fri Sep 26 17:34:18 2014
### 

@<TRIPOS>MOLECULE
1kdv_ligand
   58    58     1     0     0
SMALL
GAST_HUCK


@<TRIPOS>ATOM
      1 C          20.5380   11.4810    7.8990 C.2       1 AIAF        0.1751
      2 O          19.2080   11.5900    7.8700 O.2       1 AIAF       -0.3972
      3 CH3        21.1290   10.2490    8.2460 C.3       1 AIAF        0.0258
      4 N          21.4600   12.4250    7.6710 N.am      1 AIAF       -0.2656
      5 CA         22.8990   12.2930    7.5850 C.3       1 AIAF        0.1334
      6 C          23.6480   13.0370    8.6870 C.2       1 AIAF        0.2041
      7 O          24.8800   13.0620    8.6870 O.2       1 AIAF       -0.3944
      8 CB         23.4410   12.6880    6.1940 C.3       1 AIAF       -0.0037
      9 CG1        23.2020   14.1630    5.8360 C.3       1 AIAF       -0.0491
     10 CG2        22.9110   11.7420    5.1030 C.3       1 AIAF       -0.0582
     11 CD1        24.0090   14.6190    4.6400 C.3       1 AIAF       -0.0648
     12 N          22.9920   13.6370    9.6590 N.am      1 AIAF       -0.2640
     13 CA         23.7010   14.3140   10.7470 C.3       1 AIAF        0.1281
     14 C          24.5270   13.3240   11.5490 C.2       1 AIAF        0.2018
     15 O          24.1060   12.1910   11.8180 O.2       1 AIAF       -0.3945
     16 CB         22.6890   14.9910   11.6570 C.3       1 AIAF       -0.0244
     17 N          25.6950   13.7730   11.9740 N.am      1 AIAF       -0.2778
     18 CA         26.5700   13.0830   12.9000 C.3       1 AIAF        0.0745
     19 C          26.6940   13.8000   14.1780 C.3       1 AIAF        0.0689
     20 O          27.3310   13.1670   15.2340 O.3       1 AIAF       -0.3926
     21 CB         27.9720   12.9110   12.2910 C.3       1 AIAF        0.0061
     22 CG         28.1520   11.9480   11.1810 C.ar      1 AIAF       -0.0408
     23 CD1        29.1330   12.1590   10.2060 C.ar      1 AIAF       -0.0603
     24 CD2        27.4320   10.7440   11.1140 C.ar      1 AIAF       -0.0603
     25 CE1        29.3810   11.2280    9.2150 C.ar      1 AIAF       -0.0686
     26 CE2        27.6620    9.8270   10.0920 C.ar      1 AIAF       -0.0686
     27 CZ         28.6320   10.0830    9.1500 C.ar      1 AIAF       -0.0687
     28 H1         22.2243   10.3467    8.2170 H         1 AIAF        0.0467
     29 H2         20.8108    9.4755    7.5315 H         1 AIAF        0.0467
     30 H3         20.8131    9.9635    9.2603 H         1 AIAF        0.0467
     31 H4         21.1047   13.3508    7.5421 H         1 AIAF        0.1883
     32 H5         23.1196   11.2240    7.7216 H         1 AIAF        0.0803
     33 H6         24.5317   12.5510    6.2330 H         1 AIAF        0.0345
     34 H7         23.4775   14.7830    6.7018 H         1 AIAF        0.0267
     35 H8         22.1340   14.3007    5.6114 H         1 AIAF        0.0267
     36 H9         23.1014   10.6994    5.3976 H         1 AIAF        0.0235
     37 H10        23.4236   11.9540    4.1531 H         1 AIAF        0.0235
     38 H11        21.8290   11.8959    4.9781 H         1 AIAF        0.0235
     39 H12        23.7947   15.6784    4.4354 H         1 AIAF        0.0230
     40 H13        23.7377   14.0140    3.7623 H         1 AIAF        0.0230
     41 H14        25.0812   14.4963    4.8528 H         1 AIAF        0.0230
     42 H15        21.9920   13.6301    9.6539 H         1 AIAF        0.1883
     43 H16        24.3710   15.0748   10.3201 H         1 AIAF        0.0797
     44 H17        23.2165   15.5013   12.4764 H         1 AIAF        0.0277
     45 H18        22.0077   14.2349   12.0743 H         1 AIAF        0.0277
     46 H19        22.1106   15.7267   11.0790 H         1 AIAF        0.0277
     47 H20        25.9995   14.6607   11.6286 H         1 AIAF        0.1857
     48 H21        26.1446   12.0880   13.0974 H         1 AIAF        0.0601
     49 H22        25.6752   14.0442   14.5132 H         1 AIAF        0.0582
     50 H23        27.2464   14.7296   13.9762 H         1 AIAF        0.0582
     51 H24        27.3384   13.7423   15.9900 H         1 AIAF        0.2095
     52 H25        28.6420   12.5960   13.1046 H         1 AIAF        0.0449
     53 H26        28.2862   13.8970   11.9182 H         1 AIAF        0.0449
     54 H27        29.7126   13.0748   10.2284 H         1 AIAF        0.0557
     55 H28        26.6859   10.5254   11.8694 H         1 AIAF        0.0557
     56 H29        30.1674   11.4038    8.4900 H         1 AIAF        0.0599
     57 H30        27.0791    8.9146   10.0385 H         1 AIAF        0.0599
     58 H31        28.8048    9.3725    8.3498 H         1 AIAF        0.0559
@<TRIPOS>BOND
     1    1    2 2  
     2    1    3 1  
     3    1    4 am 
     4    4    5 1  
     5    5    6 1  
     6    5    8 1  
     7    6    7 2  
     8    6   12 am 
     9    8    9 1  
    10    8   10 1  
    11    9   11 1  
    12   12   13 1  
    13   13   14 1  
    14   13   16 1  
    15   14   15 2  
    16   14   17 am 
    17   17   18 1  
    18   18   19 1  
    19   18   21 1  
    20   19   20 1  
    21   21   22 1  
    22   22   23 ar 
    23   22   24 ar 
    24   23   25 ar 
    25   24   26 ar 
    26   25   27 ar 
    27   26   27 ar 
    28    3   28 1  
    29    3   29 1  
    30    3   30 1  
    31    4   31 1  
    32    5   32 1  
    33    8   33 1  
    34    9   34 1  
    35    9   35 1  
    36   10   36 1  
    37   10   37 1  
    38   10   38 1  
    39   11   39 1  
    40   11   40 1  
    41   11   41 1  
    42   12   42 1  
    43   13   43 1  
    44   16   44 1  
    45   16   45 1  
    46   16   46 1  
    47   17   47 1  
    48   18   48 1  
    49   19   49 1  
    50   19   50 1  
    51   20   51 1  
    52   21   52 1  
    53   21   53 1  
    54   23   54 1  
    55   24   55 1  
    56   25   56 1  
    57   26   57 1  
    58   27   58 1  
@<TRIPOS>SUBSTRUCTURE
     1 AIAF        1

