### 
### Created by X-TOOL on Fri Sep 26 17:34:18 2014
### 

@<TRIPOS>MOLECULE
1kdy_ligand
   62    63     1     0     0
SMALL
GAST_HUCK


@<TRIPOS>ATOM
      1 C          23.1740   13.2770    5.3780 C.2       1 AIPF        0.1751
      2 O          22.0490   13.9040    5.3760 O.2       1 AIPF       -0.3972
      3 CH3        24.0250   13.1850    4.2620 C.3       1 AIPF        0.0258
      4 N          23.4830   12.6210    6.4790 N.am      1 AIPF       -0.2656
      5 CA         22.6730   12.5640    7.6990 C.3       1 AIPF        0.1336
      6 C          23.5190   13.1140    8.8320 C.2       1 AIPF        0.2067
      7 O          24.7390   12.9350    8.8580 O.2       1 AIPF       -0.3942
      8 CB         22.2490   11.1540    8.0130 C.3       1 AIPF       -0.0037
      9 CG1        21.3100   10.5640    6.9010 C.3       1 AIPF       -0.0491
     10 CG2        21.6180   10.9040    9.3550 C.3       1 AIPF       -0.0582
     11 CD1        21.9650    9.3060    6.3900 C.3       1 AIPF       -0.0648
     12 N          22.9280   13.8520    9.7490 N.am      1 AIPF       -0.2498
     13 CA         23.7370   14.4420   10.8220 C.3       1 AIPF        0.1336
     14 C          24.4690   13.4110   11.6530 C.2       1 AIPF        0.2023
     15 O          23.9570   12.3420   11.9600 O.2       1 AIPF       -0.3945
     16 CB         22.6920   15.2250   11.6620 C.3       1 AIPF       -0.0104
     17 CG         21.6350   15.5630   10.7400 C.3       1 AIPF       -0.0281
     18 CD         21.5330   14.3410    9.8210 C.3       1 AIPF        0.0369
     19 N          25.6700   13.8140   12.0530 N.am      1 AIPF       -0.2778
     20 CA         26.4990   13.0710   12.9900 C.3       1 AIPF        0.0745
     21 C          26.6270   13.7940   14.2930 C.3       1 AIPF        0.0689
     22 O          27.2720   13.1410   15.3350 O.3       1 AIPF       -0.3926
     23 CB         27.9150   12.8970   12.4110 C.3       1 AIPF        0.0061
     24 CG         28.0590   11.9440   11.2400 C.ar      1 AIPF       -0.0408
     25 CD1        29.0390   12.2000   10.2800 C.ar      1 AIPF       -0.0603
     26 CD2        27.3180   10.7580   11.1540 C.ar      1 AIPF       -0.0603
     27 CE1        29.2420   11.2870    9.2540 C.ar      1 AIPF       -0.0686
     28 CE2        27.5040    9.8710   10.0860 C.ar      1 AIPF       -0.0686
     29 CZ         28.4740   10.1550    9.1360 C.ar      1 AIPF       -0.0687
     30 H1         24.9163   12.5978    4.5280 H         1 AIPF        0.0467
     31 H2         24.3308   14.1945    3.9498 H         1 AIPF        0.0467
     32 H3         23.4936   12.6907    3.4354 H         1 AIPF        0.0467
     33 H4         24.3470   12.1175    6.4819 H         1 AIPF        0.1883
     34 H5         21.7749   13.1861    7.5708 H         1 AIPF        0.0803
     35 H6         23.1760   10.5620    8.0000 H         1 AIPF        0.0345
     36 H7         21.1939   11.2886    6.0816 H         1 AIPF        0.0267
     37 H8         20.3228   10.3296    7.3259 H         1 AIPF        0.0267
     38 H9         22.2646   11.3120   10.1459 H         1 AIPF        0.0235
     39 H10        21.4932    9.8215    9.5056 H         1 AIPF        0.0235
     40 H11        20.6348   11.3956    9.3952 H         1 AIPF        0.0235
     41 H12        21.3371    8.8584    5.6055 H         1 AIPF        0.0230
     42 H13        22.0823    8.5913    7.2179 H         1 AIPF        0.0230
     43 H14        22.9534    9.5503    5.9736 H         1 AIPF        0.0230
     44 H15        24.4795   15.1332   10.3966 H         1 AIPF        0.0802
     45 H16        23.1415   16.1364   12.0830 H         1 AIPF        0.0313
     46 H17        22.3049   14.5966   12.4776 H         1 AIPF        0.0313
     47 H18        21.8930   16.4639   10.1639 H         1 AIPF        0.0287
     48 H19        20.6884   15.7286   11.2753 H         1 AIPF        0.0287
     49 H20        20.8695   13.5774   10.2530 H         1 AIPF        0.0524
     50 H21        21.1636   14.6267    8.8250 H         1 AIPF        0.0524
     51 H22        26.0240   14.6759   11.6900 H         1 AIPF        0.1857
     52 H23        26.0458   12.0838   13.1631 H         1 AIPF        0.0601
     53 H24        25.6099   14.0345   14.6361 H         1 AIPF        0.0582
     54 H25        27.1783   14.7258   14.0985 H         1 AIPF        0.0582
     55 H26        27.2865   13.7035   16.1005 H         1 AIPF        0.2095
     56 H27        28.5636   12.5309   13.2205 H         1 AIPF        0.0449
     57 H28        28.2640   13.8864   12.0805 H         1 AIPF        0.0449
     58 H29        29.6360   13.1031   10.3349 H         1 AIPF        0.0557
     59 H30        26.5915   10.5239   11.9237 H         1 AIPF        0.0557
     60 H31        30.0258   11.4723    8.5285 H         1 AIPF        0.0599
     61 H32        26.8987    8.9756   10.0031 H         1 AIPF        0.0599
     62 H33        28.6259    9.4825    8.2995 H         1 AIPF        0.0559
@<TRIPOS>BOND
     1    1    2 2  
     2    1    3 1  
     3    1    4 am 
     4    4    5 1  
     5    5    6 1  
     6    5    8 1  
     7    6    7 2  
     8    6   12 am 
     9    8    9 1  
    10    8   10 1  
    11    9   11 1  
    12   12   13 1  
    13   12   18 1  
    14   13   14 1  
    15   13   16 1  
    16   14   15 2  
    17   14   19 am 
    18   16   17 1  
    19   17   18 1  
    20   19   20 1  
    21   20   21 1  
    22   20   23 1  
    23   21   22 1  
    24   23   24 1  
    25   24   25 ar 
    26   24   26 ar 
    27   25   27 ar 
    28   26   28 ar 
    29   27   29 ar 
    30   28   29 ar 
    31    3   30 1  
    32    3   31 1  
    33    3   32 1  
    34    4   33 1  
    35    5   34 1  
    36    8   35 1  
    37    9   36 1  
    38    9   37 1  
    39   10   38 1  
    40   10   39 1  
    41   10   40 1  
    42   11   41 1  
    43   11   42 1  
    44   11   43 1  
    45   13   44 1  
    46   16   45 1  
    47   16   46 1  
    48   17   47 1  
    49   17   48 1  
    50   18   49 1  
    51   18   50 1  
    52   19   51 1  
    53   20   52 1  
    54   21   53 1  
    55   21   54 1  
    56   22   55 1  
    57   23   56 1  
    58   23   57 1  
    59   25   58 1  
    60   26   59 1  
    61   27   60 1  
    62   28   61 1  
    63   29   62 1  
@<TRIPOS>SUBSTRUCTURE
     1 AIPF        1

