### 
### Created by X-TOOL on Fri Sep 26 17:34:22 2014
### 

@<TRIPOS>MOLECULE
1nhx_ligand
   12    11     1     0     0
SMALL
GAST_HUCK


@<TRIPOS>ATOM
      1 C1         46.2590   25.1100   38.4430 C.2       1 FTB         0.1512
      2 O1         47.0720   26.0070   38.7250 O.co2     1 FTB        -0.5022
      3 O2'        46.2310   24.0420   39.2220 O.co2     1 FTB        -0.5022
      4 C2         45.4030   25.2840   37.2250 C.2       1 FTB         0.1573
      5 C3         44.3160   24.6230   36.8180 C.2       1 FTB        -0.0723
      6 O2         46.0370   26.3320   36.5770 O.3       1 FTB        -0.2171
      7 P          45.3930   27.1960   35.2270 P.3       1 FTB         0.1934
      8 O1P        45.3840   26.1550   33.8740 O.co2     1 FTB        -0.5891
      9 O2P        43.7540   27.6270   35.5580 O.co2     1 FTB        -0.5891
     10 O3P        46.2510   28.4410   34.9920 O.co2     1 FTB        -0.5891
     11 H1         43.8253   24.9029   35.8870 H         1 FTB         0.0296
     12 H2         43.9205   23.8042   37.4172 H         1 FTB         0.0296
@<TRIPOS>BOND
     1    1    2 ar 
     2    1    3 ar 
     3    1    4 1  
     4    4    5 2  
     5    4    6 1  
     6    6    7 1  
     7    7    8 ar 
     8    7    9 ar 
     9    7   10 ar 
    10    5   11 1  
    11    5   12 1  
@<TRIPOS>SUBSTRUCTURE
     1 FTB         1

