### 
### Created by X-TOOL on Fri Sep 26 17:34:16 2014
### 

@<TRIPOS>MOLECULE
1qj1_ligand
  172   174     1     0     0
SMALL
GAST_HUCK


@<TRIPOS>ATOM
      1 N          14.7880   21.0030   71.4520 N.4       1 MOL         0.2391
      2 CA         15.8490   21.6050   70.5930 C.3       1 MOL         0.0765
      3 C          15.9270   23.1460   70.6530 C.2       1 MOL         0.2285
      4 O          16.9550   23.7810   70.7750 O.2       1 MOL        -0.3906
      5 CB         15.6720   21.1030   69.1450 C.3       1 MOL         0.0607
      6 CG         16.9190   21.3360   68.2710 C.2       1 MOL         0.0425
      7 OD1        18.0390   21.0240   68.7020 O.co2     1 MOL        -0.5686
      8 OD2        16.7590   21.8190   67.1430 O.co2     1 MOL        -0.5686
      9 N          14.7600   23.7490   70.6390 N.am      1 MOL        -0.2591
     10 CA         14.7830   25.1970   70.8340 C.3       1 MOL         0.1406
     11 C          15.1880   25.7170   72.2480 C.2       1 MOL         0.2060
     12 O          14.7760   25.2420   73.3030 O.2       1 MOL        -0.3942
     13 CB         13.4170   25.7230   70.3070 C.3       1 MOL         0.0214
     14 CG         13.3910   25.5650   68.8010 C.ar      1 MOL        -0.0386
     15 CD1        13.2220   24.3130   68.2170 C.ar      1 MOL        -0.0601
     16 CD2        13.6370   26.6740   67.9950 C.ar      1 MOL        -0.0601
     17 CE1        13.3190   24.1600   66.8410 C.ar      1 MOL        -0.0686
     18 CE2        13.7340   26.5220   66.6160 C.ar      1 MOL        -0.0686
     19 CZ         13.5800   25.2660   66.0420 C.ar      1 MOL        -0.0687
     20 N          16.0430   26.7370   72.2520 N.am      1 MOL        -0.2635
     21 CA         16.2000   27.4620   73.5090 C.3       1 MOL         0.1325
     22 C          14.8930   28.0780   73.9500 C.2       1 MOL         0.2040
     23 O          13.9930   28.3950   73.1970 O.2       1 MOL        -0.3944
     24 CB         17.2690   28.5390   73.3510 C.3       1 MOL        -0.0008
     25 CG         17.7140   29.1830   74.6590 C.3       1 MOL         0.0044
     26 CD         18.5020   30.4560   74.4320 C.2       1 MOL         0.0350
     27 OE1        19.2760   30.5480   73.4840 O.co2     1 MOL        -0.5690
     28 OE2        18.3340   31.3720   75.2220 O.co2     1 MOL        -0.5690
     29 N          14.7800   28.1740   75.2370 N.am      1 MOL        -0.2636
     30 CA         13.4750   28.4980   75.7960 C.3       1 MOL         0.1325
     31 C          13.0900   29.9580   75.6020 C.2       1 MOL         0.2040
     32 O          13.8810   30.8710   75.7890 O.2       1 MOL        -0.3944
     33 CB         13.5310   28.1110   77.2950 C.3       1 MOL        -0.0008
     34 CG         14.1350   26.7130   77.6640 C.3       1 MOL         0.0044
     35 CD         15.6780   26.6170   77.5980 C.2       1 MOL         0.0350
     36 OE1        16.3720   27.5680   78.0040 O.co2     1 MOL        -0.5690
     37 OE2        16.1800   25.5820   77.1360 O.co2     1 MOL        -0.5690
     38 N          11.8560   30.1880   75.2090 N.am      1 MOL        -0.2635
     39 CA         11.5440   31.6200   75.1050 C.3       1 MOL         0.1337
     40 C          10.8700   32.2200   76.3480 C.2       1 MOL         0.2067
     41 O          10.2120   31.5390   77.1210 O.2       1 MOL        -0.3942
     42 CB         10.8280   31.9120   73.7440 C.3       1 MOL        -0.0037
     43 CG1         9.4320   31.3360   73.5250 C.3       1 MOL        -0.0491
     44 CG2        11.7360   31.4330   72.6120 C.3       1 MOL        -0.0582
     45 CD1         8.4010   32.3340   73.9920 C.3       1 MOL        -0.0648
     46 N          11.0750   33.5190   76.5820 N.am      1 MOL        -0.2498
     47 CA         10.4160   34.1930   77.7270 C.3       1 MOL         0.1338
     48 C           8.9070   34.0630   77.9110 C.2       1 MOL         0.2041
     49 O           8.0910   34.3070   77.0350 O.2       1 MOL        -0.3944
     50 CB         10.8180   35.6570   77.5150 C.3       1 MOL        -0.0104
     51 CG         12.1810   35.5840   76.8210 C.3       1 MOL        -0.0281
     52 CD         12.0040   34.4000   75.8780 C.3       1 MOL         0.0369
     53 N           8.5330   33.7000   79.1370 N.am      1 MOL        -0.2636
     54 CA          7.1090   33.4090   79.3600 C.3       1 MOL         0.1325
     55 C           6.1030   34.5030   79.0310 C.2       1 MOL         0.2040
     56 O           4.9690   34.2490   78.6960 O.2       1 MOL        -0.3944
     57 CB          6.8440   32.8480   80.7830 C.3       1 MOL        -0.0008
     58 CG          6.9770   33.8300   81.9840 C.3       1 MOL         0.0044
     59 CD          6.5260   33.2500   83.3480 C.2       1 MOL         0.0350
     60 OE1         7.3170   32.5320   83.9810 O.co2     1 MOL        -0.5690
     61 OE2         5.3980   33.5420   83.7870 O.co2     1 MOL        -0.5690
     62 N           6.5440   35.7510   79.0450 N.am      1 MOL        -0.2636
     63 CA          5.6110   36.7670   78.5160 C.3       1 MOL         0.1325
     64 C           5.1200   36.6030   77.0650 C.2       1 MOL         0.2041
     65 O           4.2230   37.2850   76.6040 O.2       1 MOL        -0.3944
     66 CB          6.2060   38.1830   78.4970 C.3       1 MOL        -0.0008
     67 CG          7.1280   38.6350   79.6230 C.3       1 MOL         0.0044
     68 CD          8.5370   38.1410   79.3770 C.2       1 MOL         0.0350
     69 OE1         9.1260   38.5110   78.3420 O.co2     1 MOL        -0.5690
     70 OE2         9.0300   37.3920   80.2330 O.co2     1 MOL        -0.5690
     71 N           5.7860   35.7190   76.3170 N.am      1 MOL        -0.2621
     72 CA          5.3170   35.4980   74.9380 C.3       1 MOL         0.1390
     73 CB          6.4880   35.2390   74.0020 C.3       1 MOL         0.0163
     74 CG          7.3870   36.4310   73.9720 C.ar      1 MOL        -0.0493
     75 CD1         6.8710   37.6390   73.5340 C.ar      1 MOL        -0.0684
     76 CD2         8.7020   36.3000   74.3920 C.ar      1 MOL        -0.0684
     77 CE1         7.6870   38.7520   73.5130 C.ar      1 MOL        -0.0370
     78 CE2         9.5210   37.4170   74.3690 C.ar      1 MOL        -0.0370
     79 CZ          9.0060   38.6340   73.9230 C.ar      1 MOL         0.1183
     80 OH          9.8590   39.8000   73.8390 O.3       1 MOL        -0.1520
     81 S          10.7440   40.0490   72.6080 S.o2      1 MOL         0.2255
     82 O1         11.5020   38.8010   72.2060 O.3       1 MOL        -0.2280
     83 O2         11.7420   41.1230   72.9050 O.2       1 MOL        -0.1141
     84 O3          9.8170   40.5260   71.5230 O.2       1 MOL        -0.1141
     85 C           4.3690   34.3400   74.7230 C.2       1 MOL         0.2052
     86 O           3.9440   34.0700   73.6090 O.2       1 MOL        -0.3943
     87 N           4.0930   33.6530   75.8230 N.am      1 MOL        -0.2693
     88 CA          3.1290   32.5630   75.7590 C.3       1 MOL         0.0946
     89 C           1.7240   32.9660   76.2610 C.2       1 MOL         0.0601
     90 O           0.7890   32.9150   75.4510 O.co2     1 MOL        -0.5666
     91 CB          3.7840   31.3940   76.4970 C.3       1 MOL        -0.0156
     92 CG          5.1210   31.0640   75.8180 C.3       1 MOL        -0.0431
     93 CD1         6.0690   30.3050   76.7280 C.3       1 MOL        -0.0625
     94 CD2         4.8960   30.2850   74.5290 C.3       1 MOL        -0.0625
     95 OXT         1.5390   33.3450   77.4380 O.co2     1 MOL        -0.5666
     96 H1         14.8057   19.9999   71.3544 H         1 MOL         0.2016
     97 H2         13.8865   21.3525   71.1671 H         1 MOL         0.2016
     98 H3         14.9550   21.2498   72.4149 H         1 MOL         0.2016
     99 H4         16.8144   21.2275   70.9611 H         1 MOL         0.1117
    100 H5         14.8219   21.6336   68.6914 H         1 MOL         0.0512
    101 H6         15.4591   20.0241   69.1715 H         1 MOL         0.0512
    102 H7         13.9061   23.2466   70.5029 H         1 MOL         0.1886
    103 H8         15.5579   25.5896   70.1591 H         1 MOL         0.0823
    104 H9         13.3011   26.7846   70.5709 H         1 MOL         0.0474
    105 H10        12.5975   25.1421   70.7554 H         1 MOL         0.0474
    106 H11        13.0132   23.4516   68.8411 H         1 MOL         0.0557
    107 H12        13.7527   27.6547   68.4422 H         1 MOL         0.0557
    108 H13        13.1917   23.1817   66.3917 H         1 MOL         0.0599
    109 H14        13.9299   27.3840   65.9885 H         1 MOL         0.0599
    110 H15        13.6638   25.1489   64.9676 H         1 MOL         0.0559
    111 H16        16.5540   26.9946   71.4320 H         1 MOL         0.1883
    112 H17        16.5273   26.7522   74.2830 H         1 MOL         0.0801
    113 H18        16.8680   29.3283   72.6982 H         1 MOL         0.0330
    114 H19        18.1496   28.0823   72.8757 H         1 MOL         0.0330
    115 H20        18.3453   28.4691   75.2083 H         1 MOL         0.0433
    116 H21        16.8225   29.4206   75.2580 H         1 MOL         0.0433
    117 H22        15.5702   28.0290   75.8324 H         1 MOL         0.1883
    118 H23        12.7133   27.8820   75.2957 H         1 MOL         0.0801
    119 H24        12.5007   28.1355   77.6794 H         1 MOL         0.0330
    120 H25        14.1326   28.8749   77.8093 H         1 MOL         0.0330
    121 H26        13.7189   25.9695   76.9683 H         1 MOL         0.0433
    122 H27        13.8237   26.4693   78.6905 H         1 MOL         0.0433
    123 H28        11.1984   29.4635   75.0024 H         1 MOL         0.1883
    124 H29        12.5155   32.1321   75.0419 H         1 MOL         0.0803
    125 H30        10.7287   33.0051   73.6714 H         1 MOL         0.0345
    126 H31         9.3257   30.4029   74.0976 H         1 MOL         0.0267
    127 H32         9.2840   31.1285   72.4550 H         1 MOL         0.0267
    128 H33        12.7475   31.8405   72.7560 H         1 MOL         0.0235
    129 H34        11.3347   31.7799   71.6483 H         1 MOL         0.0235
    130 H35        11.7794   30.3339   72.6169 H         1 MOL         0.0235
    131 H36         7.3936   31.9210   73.8352 H         1 MOL         0.0230
    132 H37         8.5080   33.2670   73.4193 H         1 MOL         0.0230
    133 H38         8.5497   32.5414   75.0620 H         1 MOL         0.0230
    134 H39        10.8733   33.8127   78.6523 H         1 MOL         0.0802
    135 H40        10.9000   36.1811   78.4786 H         1 MOL         0.0313
    136 H41        10.0846   36.1732   76.8781 H         1 MOL         0.0313
    137 H42        12.9874   35.3985   77.5458 H         1 MOL         0.0287
    138 H43        12.3941   36.5082   76.2639 H         1 MOL         0.0287
    139 H44        11.5802   34.7264   74.9169 H         1 MOL         0.0524
    140 H45        12.9647   33.8940   75.7022 H         1 MOL         0.0524
    141 H46         9.1980   33.6279   79.8803 H         1 MOL         0.1883
    142 H47         6.8793   32.5911   78.6613 H         1 MOL         0.0801
    143 H48         7.5559   32.0262   80.9501 H         1 MOL         0.0330
    144 H49         5.8178   32.4522   80.7943 H         1 MOL         0.0330
    145 H50         6.3642   34.7180   81.7699 H         1 MOL         0.0433
    146 H51         8.0331   34.1253   82.0697 H         1 MOL         0.0433
    147 H52         7.4509   35.9908   79.3915 H         1 MOL         0.1883
    148 H53         4.7341   36.7522   79.1799 H         1 MOL         0.0801
    149 H54         5.3584   38.8839   78.4794 H         1 MOL         0.0330
    150 H55         6.7776   38.2752   77.5617 H         1 MOL         0.0330
    151 H56         6.7621   38.2282   80.5773 H         1 MOL         0.0433
    152 H57         7.1317   39.7340   79.6702 H         1 MOL         0.0433
    153 H58         6.5755   35.2244   76.6805 H         1 MOL         0.1885
    154 H59         4.8029   36.4186   74.6245 H         1 MOL         0.0821
    155 H60         6.1084   35.0427   72.9884 H         1 MOL         0.0453
    156 H61         7.0530   34.3648   74.3577 H         1 MOL         0.0453
    157 H62         5.8385   37.7097   73.2115 H         1 MOL         0.0530
    158 H63         9.0814   35.3430   74.7314 H         1 MOL         0.0530
    159 H64         7.3006   39.7083   73.1794 H         1 MOL         0.0526
    160 H65        10.5525   37.3459   74.6946 H         1 MOL         0.0526
    161 H66        12.0381   38.9877   71.4443 H         1 MOL         0.2473
    162 H67         4.5418   33.8808   76.6871 H         1 MOL         0.1875
    163 H68         3.0087   32.2700   74.7056 H         1 MOL         0.0726
    164 H69         3.1231   30.5155   76.4576 H         1 MOL         0.0308
    165 H70         3.9616   31.6726   77.5462 H         1 MOL         0.0308
    166 H71         5.6029   32.0180   75.5578 H         1 MOL         0.0297
    167 H72         7.0058   30.0972   76.1902 H         1 MOL         0.0232
    168 H73         5.6034   29.3564   77.0333 H         1 MOL         0.0232
    169 H74         6.2851   30.9113   77.6200 H         1 MOL         0.0232
    170 H75         4.2080   30.8443   73.8780 H         1 MOL         0.0232
    171 H76         4.4603   29.3030   74.7653 H         1 MOL         0.0232
    172 H77         5.8571   30.1451   74.0126 H         1 MOL         0.0232
@<TRIPOS>BOND
     1    1    2 1  
     2    2    3 1  
     3    2    5 1  
     4    3    4 2  
     5    3    9 am 
     6    5    6 1  
     7    6    7 ar 
     8    6    8 ar 
     9    9   10 1  
    10   10   11 1  
    11   10   13 1  
    12   11   12 2  
    13   11   20 am 
    14   13   14 1  
    15   14   15 ar 
    16   14   16 ar 
    17   15   17 ar 
    18   16   18 ar 
    19   17   19 ar 
    20   18   19 ar 
    21   20   21 1  
    22   21   22 1  
    23   21   24 1  
    24   22   23 2  
    25   22   29 am 
    26   24   25 1  
    27   25   26 1  
    28   26   27 ar 
    29   26   28 ar 
    30   29   30 1  
    31   30   31 1  
    32   30   33 1  
    33   31   32 2  
    34   31   38 am 
    35   33   34 1  
    36   34   35 1  
    37   35   36 ar 
    38   35   37 ar 
    39   38   39 1  
    40   39   40 1  
    41   39   42 1  
    42   40   41 2  
    43   40   46 am 
    44   42   43 1  
    45   42   44 1  
    46   43   45 1  
    47   46   47 1  
    48   46   52 1  
    49   47   48 1  
    50   47   50 1  
    51   48   49 2  
    52   48   53 am 
    53   50   51 1  
    54   51   52 1  
    55   53   54 1  
    56   54   55 1  
    57   54   57 1  
    58   55   56 2  
    59   55   62 am 
    60   57   58 1  
    61   58   59 1  
    62   59   60 ar 
    63   59   61 ar 
    64   62   63 1  
    65   63   64 1  
    66   63   66 1  
    67   64   65 2  
    68   64   71 am 
    69   66   67 1  
    70   67   68 1  
    71   68   69 ar 
    72   68   70 ar 
    73   71   72 1  
    74   72   73 1  
    75   72   85 1  
    76   73   74 1  
    77   74   75 ar 
    78   74   76 ar 
    79   75   77 ar 
    80   76   78 ar 
    81   77   79 ar 
    82   78   79 ar 
    83   79   80 1  
    84   80   81 1  
    85   81   82 1  
    86   81   83 2  
    87   81   84 2  
    88   85   86 2  
    89   85   87 am 
    90   87   88 1  
    91   88   89 1  
    92   88   91 1  
    93   89   90 ar 
    94   89   95 ar 
    95   91   92 1  
    96   92   93 1  
    97   92   94 1  
    98    1   96 1  
    99    1   97 1  
   100    1   98 1  
   101    2   99 1  
   102    5  100 1  
   103    5  101 1  
   104    9  102 1  
   105   10  103 1  
   106   13  104 1  
   107   13  105 1  
   108   15  106 1  
   109   16  107 1  
   110   17  108 1  
   111   18  109 1  
   112   19  110 1  
   113   20  111 1  
   114   21  112 1  
   115   24  113 1  
   116   24  114 1  
   117   25  115 1  
   118   25  116 1  
   119   29  117 1  
   120   30  118 1  
   121   33  119 1  
   122   33  120 1  
   123   34  121 1  
   124   34  122 1  
   125   38  123 1  
   126   39  124 1  
   127   42  125 1  
   128   43  126 1  
   129   43  127 1  
   130   44  128 1  
   131   44  129 1  
   132   44  130 1  
   133   45  131 1  
   134   45  132 1  
   135   45  133 1  
   136   47  134 1  
   137   50  135 1  
   138   50  136 1  
   139   51  137 1  
   140   51  138 1  
   141   52  139 1  
   142   52  140 1  
   143   53  141 1  
   144   54  142 1  
   145   57  143 1  
   146   57  144 1  
   147   58  145 1  
   148   58  146 1  
   149   62  147 1  
   150   63  148 1  
   151   66  149 1  
   152   66  150 1  
   153   67  151 1  
   154   67  152 1  
   155   71  153 1  
   156   72  154 1  
   157   73  155 1  
   158   73  156 1  
   159   75  157 1  
   160   76  158 1  
   161   77  159 1  
   162   78  160 1  
   163   82  161 1  
   164   87  162 1  
   165   88  163 1  
   166   91  164 1  
   167   91  165 1  
   168   92  166 1  
   169   93  167 1  
   170   93  168 1  
   171   93  169 1  
   172   94  170 1  
   173   94  171 1  
   174   94  172 1  
@<TRIPOS>SUBSTRUCTURE
     1 MOL         1

