### 
### Created by X-TOOL on Fri Sep 26 17:34:16 2014
### 

@<TRIPOS>MOLECULE
1qj7_ligand
  172   174     1     0     0
SMALL
GAST_HUCK


@<TRIPOS>ATOM
      1 N          15.3070   20.9020   70.8490 N.4       1 GR1         0.2391
      2 CA         16.3660   21.6260   70.0840 C.3       1 GR1         0.0765
      3 C          16.4650   23.1410   70.3540 C.2       1 GR1         0.2285
      4 O          17.5130   23.7440   70.4530 O.2       1 GR1        -0.3906
      5 CB         16.1750   21.3770   68.5640 C.3       1 GR1         0.0607
      6 CG         17.5090   21.3670   67.7980 C.2       1 GR1         0.0425
      7 OD1        18.4120   22.1470   68.1170 O.co2     1 GR1        -0.5686
      8 OD2        17.6450   20.5640   66.8680 O.co2     1 GR1        -0.5686
      9 N          15.2900   23.7290   70.4750 N.am      1 GR1        -0.2591
     10 CA         15.1590   25.1700   70.6570 C.3       1 GR1         0.1406
     11 C          15.5040   25.6210   72.0720 C.2       1 GR1         0.2060
     12 O          15.0880   25.0210   73.0510 O.2       1 GR1        -0.3942
     13 CB         13.7040   25.5460   70.2360 C.3       1 GR1         0.0214
     14 CG         13.5730   25.3320   68.7470 C.ar      1 GR1        -0.0386
     15 CD1        13.4530   24.0460   68.2210 C.ar      1 GR1        -0.0601
     16 CD2        13.7110   26.4130   67.8840 C.ar      1 GR1        -0.0601
     17 CE1        13.5010   23.8310   66.8450 C.ar      1 GR1        -0.0686
     18 CE2        13.7560   26.2020   66.5070 C.ar      1 GR1        -0.0686
     19 CZ         13.6580   24.9150   65.9840 C.ar      1 GR1        -0.0687
     20 N          16.2790   26.6850   72.1620 N.am      1 GR1        -0.2635
     21 CA         16.4120   27.3050   73.4680 C.3       1 GR1         0.1325
     22 C          15.1100   27.8960   73.9410 C.2       1 GR1         0.2040
     23 O          14.2630   28.3300   73.1840 O.2       1 GR1        -0.3944
     24 CB         17.4740   28.3880   73.3770 C.3       1 GR1        -0.0008
     25 CG         17.7480   29.2070   74.6430 C.3       1 GR1         0.0044
     26 CD         18.8000   30.2650   74.3870 C.2       1 GR1         0.0350
     27 OE1        19.6150   30.1090   73.4820 O.co2     1 GR1        -0.5690
     28 OE2        18.8020   31.2520   75.1050 O.co2     1 GR1        -0.5690
     29 N          14.9650   27.8720   75.2460 N.am      1 GR1        -0.2636
     30 CA         13.7750   28.4460   75.8660 C.3       1 GR1         0.1325
     31 C          13.5820   29.9440   75.5930 C.2       1 GR1         0.2040
     32 O          14.4900   30.7600   75.6940 O.2       1 GR1        -0.3944
     33 CB         13.8420   28.2300   77.3990 C.3       1 GR1        -0.0008
     34 CG         14.4370   26.9220   77.9980 C.3       1 GR1         0.0044
     35 CD         15.9790   26.8380   77.9690 C.2       1 GR1         0.0350
     36 OE1        16.6750   27.7730   78.4240 O.co2     1 GR1        -0.5690
     37 OE2        16.4760   25.8100   77.4950 O.co2     1 GR1        -0.5690
     38 N          12.3420   30.2870   75.2690 N.am      1 GR1        -0.2635
     39 CA         12.0130   31.7150   75.1540 C.3       1 GR1         0.1337
     40 C          11.2700   32.2830   76.3730 C.2       1 GR1         0.2067
     41 O          10.5580   31.6020   77.0940 O.2       1 GR1        -0.3942
     42 CB         11.2820   31.9930   73.7930 C.3       1 GR1        -0.0037
     43 CG1         9.9460   31.2920   73.5840 C.3       1 GR1        -0.0491
     44 CG2        12.2050   31.6170   72.6250 C.3       1 GR1        -0.0582
     45 CD1         8.7740   32.2030   73.8820 C.3       1 GR1        -0.0648
     46 N          11.4620   33.5670   76.6260 N.am      1 GR1        -0.2498
     47 CA         10.7120   34.2240   77.7040 C.3       1 GR1         0.1338
     48 C           9.2160   33.9560   77.8490 C.2       1 GR1         0.2041
     49 O           8.3880   34.1780   76.9750 O.2       1 GR1        -0.3944
     50 CB         10.9760   35.6980   77.4040 C.3       1 GR1        -0.0104
     51 CG         12.3730   35.7240   76.7920 C.3       1 GR1        -0.0281
     52 CD         12.4110   34.4510   75.9670 C.3       1 GR1         0.0369
     53 N           8.8810   33.5350   79.0690 N.am      1 GR1        -0.2636
     54 CA          7.4750   33.2690   79.4270 C.3       1 GR1         0.1325
     55 C           6.4300   34.3480   79.1140 C.2       1 GR1         0.2040
     56 O           5.2680   34.0660   78.8970 O.2       1 GR1        -0.3944
     57 CB          7.3540   32.7610   80.9050 C.3       1 GR1        -0.0008
     58 CG          7.7590   33.7250   82.0660 C.3       1 GR1         0.0044
     59 CD          7.4180   33.2310   83.5040 C.2       1 GR1         0.0350
     60 OE1         6.2840   33.4560   83.9620 O.co2     1 GR1        -0.5690
     61 OE2         8.2940   32.6630   84.1820 O.co2     1 GR1        -0.5690
     62 N           6.8650   35.6100   79.0170 N.am      1 GR1        -0.2636
     63 CA          5.9000   36.6280   78.5200 C.3       1 GR1         0.1325
     64 C           5.3390   36.4270   77.1110 C.2       1 GR1         0.2041
     65 O           4.4760   37.1490   76.6530 O.2       1 GR1        -0.3944
     66 CB          6.4560   38.0650   78.3730 C.3       1 GR1        -0.0008
     67 CG          7.4490   38.6580   79.3660 C.3       1 GR1         0.0044
     68 CD          8.8440   38.1910   79.0530 C.2       1 GR1         0.0350
     69 OE1         9.4380   38.6730   78.0790 O.co2     1 GR1        -0.5690
     70 OE2         9.3260   37.3460   79.8070 O.co2     1 GR1        -0.5690
     71 N           5.9330   35.4770   76.4020 N.am      1 GR1        -0.2621
     72 CA          5.4960   35.2450   75.0230 C.3       1 GR1         0.1390
     73 CB          6.7500   35.0490   74.1610 C.3       1 GR1         0.0163
     74 CG          7.6240   36.2920   74.1080 C.ar      1 GR1        -0.0493
     75 CD1         7.0730   37.5290   73.7570 C.ar      1 GR1        -0.0684
     76 CD2         8.9790   36.1820   74.3940 C.ar      1 GR1        -0.0684
     77 CE1         7.8700   38.6620   73.6910 C.ar      1 GR1        -0.0370
     78 CE2         9.7760   37.3210   74.3160 C.ar      1 GR1        -0.0370
     79 CZ          9.2250   38.5530   73.9650 C.ar      1 GR1         0.1183
     80 OH         10.0630   39.7360   73.8620 O.3       1 GR1        -0.1520
     81 S          11.0550   39.9210   72.7100 S.o2      1 GR1         0.2255
     82 O1         11.9150   38.7050   72.4940 O.3       1 GR1        -0.2280
     83 O2         11.9630   41.0850   72.9400 O.2       1 GR1        -0.1141
     84 O3         10.2450   40.2200   71.4910 O.2       1 GR1        -0.1141
     85 C           4.5590   34.0600   74.8010 C.2       1 GR1         0.2052
     86 O           4.0500   33.8350   73.7150 O.2       1 GR1        -0.3943
     87 N           4.3930   33.2940   75.8660 N.am      1 GR1        -0.2693
     88 CA          3.5550   32.1020   75.7890 C.3       1 GR1         0.0946
     89 C           2.1330   32.3180   76.3240 C.2       1 GR1         0.0601
     90 O           1.4790   31.3490   76.7260 O.co2     1 GR1        -0.5666
     91 CB          4.2870   31.0240   76.5740 C.3       1 GR1        -0.0156
     92 CG          5.6370   30.7550   75.9230 C.3       1 GR1        -0.0431
     93 CD1         6.5640   29.9750   76.8510 C.3       1 GR1        -0.0625
     94 CD2         5.4360   30.0570   74.5740 C.3       1 GR1        -0.0625
     95 OXT         1.6630   33.4630   76.3550 O.co2     1 GR1        -0.5666
     96 H1         15.3240   19.9245   70.6034 H         1 GR1         0.2016
     97 H2         14.4045   21.2897   70.6226 H         1 GR1         0.2016
     98 H3         15.4779   21.0031   71.8372 H         1 GR1         0.2016
     99 H4         17.3296   21.1866   70.3814 H         1 GR1         0.1117
    100 H5         15.5379   22.1740   68.1530 H         1 GR1         0.0512
    101 H6         15.6808   20.4042   68.4250 H         1 GR1         0.0512
    102 H7         14.4626   23.1684   70.4408 H         1 GR1         0.1886
    103 H8         15.8597   25.6727   69.9742 H         1 GR1         0.0823
    104 H9         13.5068   26.6005   70.4793 H         1 GR1         0.0474
    105 H10        12.9852   24.9061   70.7687 H         1 GR1         0.0474
    106 H11        13.3208   23.2037   68.8904 H         1 GR1         0.0557
    107 H12        13.7835   27.4189   68.2815 H         1 GR1         0.0557
    108 H13        13.4167   22.8263   66.4469 H         1 GR1         0.0599
    109 H14        13.8683   27.0470   65.8373 H         1 GR1         0.0599
    110 H15        13.7036   24.7575   64.9125 H         1 GR1         0.0559
    111 H16        16.7559   27.0499   71.3623 H         1 GR1         0.1883
    112 H17        16.7336   26.5426   74.1928 H         1 GR1         0.0801
    113 H18        17.1642   29.0902   72.5890 H         1 GR1         0.0330
    114 H19        18.4174   27.9030   73.0858 H         1 GR1         0.0330
    115 H20        18.1010   28.5335   75.4378 H         1 GR1         0.0433
    116 H21        16.8164   29.6962   74.9638 H         1 GR1         0.0433
    117 H22        15.6735   27.4584   75.8178 H         1 GR1         0.1883
    118 H23        12.8986   27.9134   75.4683 H         1 GR1         0.0801
    119 H24        12.8093   28.3030   77.7708 H         1 GR1         0.0330
    120 H25        14.4379   29.0600   77.8063 H         1 GR1         0.0330
    121 H26        14.0374   26.0714   77.4264 H         1 GR1         0.0433
    122 H27        14.1100   26.8459   79.0455 H         1 GR1         0.0433
    123 H28        11.6454   29.5883   75.1063 H         1 GR1         0.1883
    124 H29        12.9716   32.2528   75.1101 H         1 GR1         0.0803
    125 H30        11.0895   33.0752   73.7507 H         1 GR1         0.0345
    126 H31         9.8952   30.4186   74.2508 H         1 GR1         0.0267
    127 H32         9.8797   30.9590   72.5377 H         1 GR1         0.0267
    128 H33        13.1789   32.1122   72.7532 H         1 GR1         0.0235
    129 H34        11.7497   31.9431   71.6782 H         1 GR1         0.0235
    130 H35        12.3478   30.5265   72.6068 H         1 GR1         0.0235
    131 H36         7.8337   31.6562   73.7181 H         1 GR1         0.0230
    132 H37         8.8106   33.0775   73.2157 H         1 GR1         0.0230
    133 H38         8.8261   32.5371   74.9287 H         1 GR1         0.0230
    134 H39        11.1732   33.9462   78.6632 H         1 GR1         0.0802
    135 H40        10.9463   36.2935   78.3284 H         1 GR1         0.0313
    136 H41        10.2334   36.0882   76.6924 H         1 GR1         0.0313
    137 H42        13.1469   35.7112   77.5736 H         1 GR1         0.0287
    138 H43        12.5090   36.6110   76.1558 H         1 GR1         0.0287
    139 H44        12.1031   34.6496   74.9298 H         1 GR1         0.0524
    140 H45        13.4201   34.0131   75.9725 H         1 GR1         0.0524
    141 H46         9.5963   33.3970   79.7541 H         1 GR1         0.1883
    142 H47         7.1866   32.4173   78.7935 H         1 GR1         0.0801
    143 H48         7.9869   31.8655   80.9923 H         1 GR1         0.0330
    144 H49         6.3019   32.4837   81.0668 H         1 GR1         0.0330
    145 H50         7.2420   34.6827   81.9061 H         1 GR1         0.0433
    146 H51         8.8464   33.8818   82.0115 H         1 GR1         0.0433
    147 H52         7.8004   35.8587   79.2683 H         1 GR1         0.1883
    148 H53         5.0679   36.6321   79.2395 H         1 GR1         0.0801
    149 H54         5.5826   38.7337   78.3761 H         1 GR1         0.0330
    150 H55         6.9453   38.1055   77.3887 H         1 GR1         0.0330
    151 H56         7.1793   38.3383   80.3834 H         1 GR1         0.0433
    152 H57         7.4117   39.7556   79.3046 H         1 GR1         0.0433
    153 H58         6.6670   34.9280   76.8018 H         1 GR1         0.1885
    154 H59         4.9668   36.1488   74.6868 H         1 GR1         0.0821
    155 H60         6.4376   34.7943   73.1375 H         1 GR1         0.0453
    156 H61         7.3402   34.2212   74.5809 H         1 GR1         0.0453
    157 H62         6.0146   37.6025   73.5348 H         1 GR1         0.0530
    158 H63         9.4082   35.2264   74.6729 H         1 GR1         0.0530
    159 H64         7.4389   39.6213   73.4284 H         1 GR1         0.0526
    160 H65        10.8362   37.2493   74.5304 H         1 GR1         0.0526
    161 H66        12.5127   38.8639   71.7729 H         1 GR1         0.2473
    162 H67         4.8431   33.5323   76.7266 H         1 GR1         0.1875
    163 H68         3.4742   31.7923   74.7366 H         1 GR1         0.0726
    164 H69         3.6893   30.1006   76.5750 H         1 GR1         0.0308
    165 H70         4.4396   31.3632   77.6092 H         1 GR1         0.0308
    166 H71         6.1141   31.7265   75.7266 H         1 GR1         0.0297
    167 H72         7.5259   29.8009   76.3467 H         1 GR1         0.0232
    168 H73         6.1022   29.0091   77.1034 H         1 GR1         0.0232
    169 H74         6.7321   30.5528   77.7718 H         1 GR1         0.0232
    170 H75         4.7624   30.6591   73.9464 H         1 GR1         0.0232
    171 H76         4.9939   29.0631   74.7376 H         1 GR1         0.0232
    172 H77         6.4073   29.9477   74.0693 H         1 GR1         0.0232
@<TRIPOS>BOND
     1    1    2 1  
     2    2    3 1  
     3    2    5 1  
     4    3    4 2  
     5    3    9 am 
     6    5    6 1  
     7    6    7 ar 
     8    6    8 ar 
     9    9   10 1  
    10   10   11 1  
    11   10   13 1  
    12   11   12 2  
    13   11   20 am 
    14   13   14 1  
    15   14   15 ar 
    16   14   16 ar 
    17   15   17 ar 
    18   16   18 ar 
    19   17   19 ar 
    20   18   19 ar 
    21   20   21 1  
    22   21   22 1  
    23   21   24 1  
    24   22   23 2  
    25   22   29 am 
    26   24   25 1  
    27   25   26 1  
    28   26   27 ar 
    29   26   28 ar 
    30   29   30 1  
    31   30   31 1  
    32   30   33 1  
    33   31   32 2  
    34   31   38 am 
    35   33   34 1  
    36   34   35 1  
    37   35   36 ar 
    38   35   37 ar 
    39   38   39 1  
    40   39   40 1  
    41   39   42 1  
    42   40   41 2  
    43   40   46 am 
    44   42   43 1  
    45   42   44 1  
    46   43   45 1  
    47   46   47 1  
    48   46   52 1  
    49   47   48 1  
    50   47   50 1  
    51   48   49 2  
    52   48   53 am 
    53   50   51 1  
    54   51   52 1  
    55   53   54 1  
    56   54   55 1  
    57   54   57 1  
    58   55   56 2  
    59   55   62 am 
    60   57   58 1  
    61   58   59 1  
    62   59   60 ar 
    63   59   61 ar 
    64   62   63 1  
    65   63   64 1  
    66   63   66 1  
    67   64   65 2  
    68   64   71 am 
    69   66   67 1  
    70   67   68 1  
    71   68   69 ar 
    72   68   70 ar 
    73   71   72 1  
    74   72   73 1  
    75   72   85 1  
    76   73   74 1  
    77   74   75 ar 
    78   74   76 ar 
    79   75   77 ar 
    80   76   78 ar 
    81   77   79 ar 
    82   78   79 ar 
    83   79   80 1  
    84   80   81 1  
    85   81   82 1  
    86   81   83 2  
    87   81   84 2  
    88   85   86 2  
    89   85   87 am 
    90   87   88 1  
    91   88   89 1  
    92   88   91 1  
    93   89   90 ar 
    94   89   95 ar 
    95   91   92 1  
    96   92   93 1  
    97   92   94 1  
    98    1   96 1  
    99    1   97 1  
   100    1   98 1  
   101    2   99 1  
   102    5  100 1  
   103    5  101 1  
   104    9  102 1  
   105   10  103 1  
   106   13  104 1  
   107   13  105 1  
   108   15  106 1  
   109   16  107 1  
   110   17  108 1  
   111   18  109 1  
   112   19  110 1  
   113   20  111 1  
   114   21  112 1  
   115   24  113 1  
   116   24  114 1  
   117   25  115 1  
   118   25  116 1  
   119   29  117 1  
   120   30  118 1  
   121   33  119 1  
   122   33  120 1  
   123   34  121 1  
   124   34  122 1  
   125   38  123 1  
   126   39  124 1  
   127   42  125 1  
   128   43  126 1  
   129   43  127 1  
   130   44  128 1  
   131   44  129 1  
   132   44  130 1  
   133   45  131 1  
   134   45  132 1  
   135   45  133 1  
   136   47  134 1  
   137   50  135 1  
   138   50  136 1  
   139   51  137 1  
   140   51  138 1  
   141   52  139 1  
   142   52  140 1  
   143   53  141 1  
   144   54  142 1  
   145   57  143 1  
   146   57  144 1  
   147   58  145 1  
   148   58  146 1  
   149   62  147 1  
   150   63  148 1  
   151   66  149 1  
   152   66  150 1  
   153   67  151 1  
   154   67  152 1  
   155   71  153 1  
   156   72  154 1  
   157   73  155 1  
   158   73  156 1  
   159   75  157 1  
   160   76  158 1  
   161   77  159 1  
   162   78  160 1  
   163   82  161 1  
   164   87  162 1  
   165   88  163 1  
   166   91  164 1  
   167   91  165 1  
   168   92  166 1  
   169   93  167 1  
   170   93  168 1  
   171   93  169 1  
   172   94  170 1  
   173   94  171 1  
   174   94  172 1  
@<TRIPOS>SUBSTRUCTURE
     1 GR1         1

