### 
### Created by X-TOOL on Fri Sep 26 17:34:25 2014
### 

@<TRIPOS>MOLECULE
1w80_ligand
   18    18     1     0     0
SMALL
GAST_HUCK


@<TRIPOS>ATOM
      1 C1         31.6920  -18.7560   18.6540 C.ar      1 MOL         0.0260
      2 C2         32.7410  -19.1250   17.7450 C.ar      1 MOL        -0.0565
      3 C3         33.2600  -20.4260   17.7850 C.ar      1 MOL        -0.0618
      4 C4         32.8060  -21.3600   18.7440 C.ar      1 MOL        -0.0618
      5 C5         31.8090  -20.9980   19.6630 C.ar      1 MOL        -0.0618
      6 C6         31.2720  -19.6790   19.6130 C.ar      1 MOL        -0.0565
      7 C          31.1110  -17.3190   18.6050 C.cat     1 MOL         0.2356
      8 N1         30.0140  -16.8910   19.1770 N.pl3     1 MOL        -0.2721
      9 N2         31.7370  -16.5200   17.7780 N.pl3     1 MOL        -0.2721
     10 H1         33.1278  -18.4035   17.0344 H         1 MOL         0.0617
     11 H2         34.0203  -20.7203   17.0705 H         1 MOL         0.0618
     12 H3         33.2288  -22.3578   18.7696 H         1 MOL         0.0618
     13 H4         31.4532  -21.7101   20.3988 H         1 MOL         0.0618
     14 H5         30.5199  -19.3857   20.3365 H         1 MOL         0.0617
     15 H6         29.7286  -15.9069   19.0720 H         1 MOL         0.3181
     16 H7         29.4363  -17.5383   19.7320 H         1 MOL         0.3181
     17 H8         32.6022  -16.8331   17.3151 H         1 MOL         0.3181
     18 H9         31.3643  -15.5783   17.5903 H         1 MOL         0.3181
@<TRIPOS>BOND
     1    1    2 ar 
     2    1    6 ar 
     3    1    7 1  
     4    2    3 ar 
     5    3    4 ar 
     6    4    5 ar 
     7    5    6 ar 
     8    7    8 ar 
     9    7    9 ar 
    10    2   10 1  
    11    3   11 1  
    12    4   12 1  
    13    5   13 1  
    14    6   14 1  
    15    8   15 1  
    16    8   16 1  
    17    9   17 1  
    18    9   18 1  
@<TRIPOS>SUBSTRUCTURE
     1 MOL         1

