### 
### Created by X-TOOL on Fri Sep 26 17:34:31 2014
### 

@<TRIPOS>MOLECULE
2fou_ligand
   57    59     1     0     0
SMALL
GAST_HUCK


@<TRIPOS>ATOM
      1 S          10.6370   -0.5310   14.4470 S.o2      1 B223        0.0628
      2 O1         10.1760    0.7480   13.9930 O.2       1 B223       -0.1514
      3 O2          9.6920   -1.5590   14.7500 O.2       1 B223       -0.1514
      4 N1         11.4540   -0.2620   15.8040 N.am      1 B223       -0.2617
      5 C1         13.6050   -2.1760   11.4480 C.ar      1 B223       -0.0410
      6 C2         12.9790   -3.0090   12.3630 C.ar      1 B223       -0.0584
      7 C3         12.0650   -2.4600   13.2340 C.ar      1 B223       -0.0419
      8 C4         11.7270   -1.1450   13.2010 C.ar      1 B223        0.1009
      9 C5         12.3450   -0.2820   12.3000 C.ar      1 B223       -0.0419
     10 C6         13.2520   -0.8330   11.4460 C.ar      1 B223       -0.0584
     11 C7         14.6520   -2.6940   10.4930 C.3       1 B223        0.0011
     12 C8         14.3520   -4.0310    9.8350 C.3       1 B223        0.0399
     13 N9         13.4160   -3.6420    8.7960 N.am      1 B223       -0.2844
     14 C10        13.6070   -3.1400    7.5810 C.2       1 B223        0.2016
     15 O10        14.6660   -2.5130    7.2610 O.2       1 B223       -0.3847
     16 C11        12.5380   -3.0630    6.5210 C.ar      1 B223        0.0363
     17 C12        11.2170   -3.4110    6.6430 C.ar      1 B223       -0.0574
     18 C13        10.3500   -3.2810    5.5540 C.ar      1 B223       -0.0699
     19 C14        10.8330   -2.7950    4.3530 C.ar      1 B223       -0.0369
     20 C15        12.1650   -2.4450    4.2390 C.ar      1 B223        0.0717
     21 C16        13.0110   -2.5900    5.3100 C.ar      1 B223       -0.0215
     22 N17        12.7180   -1.9530    3.0860 N.am      1 B223       -0.2320
     23 C18        13.6720   -2.0230    2.1590 C.2       1 B223        0.2181
     24 O18        14.7580   -2.6130    2.3590 O.2       1 B223       -0.3835
     25 C19        13.4840   -1.1560    0.9110 C.3       1 B223        0.0983
     26 N20        12.3100   -0.3140    1.0710 N.3       1 B223       -0.2492
     27 C21        11.0360   -0.9140    0.7440 C.3       1 B223        0.1162
     28 C22        10.2620    0.3760    0.9570 C.2       1 B223        0.3597
     29 OXA         9.4970    0.7150    0.0400 O.co2     1 B223       -0.2610
     30 OXB        10.5240    0.9180    2.0510 O.co2     1 B223       -0.2610
     31 C23        12.4460    1.0430    1.5090 C.3       1 B223        0.1162
     32 C24        13.8360    1.1550    2.1080 C.2       1 B223        0.3597
     33 OXC        14.7210    1.5940    1.3410 O.co2     1 B223       -0.2610
     34 OXD        13.9410    1.1320    3.3570 O.co2     1 B223       -0.2610
     35 CU         12.1730    0.3530    3.0130 Cu        1 B223        2.0000
     36 H1         12.1772    0.4284   15.8237 H         1 B223        0.1634
     37 H2         11.2393   -0.7850   16.6289 H         1 B223        0.1634
     38 H3         13.2043   -4.0689   12.3918 H         1 B223        0.0557
     39 H4         11.5980   -3.1008   13.9732 H         1 B223        0.0619
     40 H5         12.1155    0.7772   12.2791 H         1 B223        0.0619
     41 H6         13.7274   -0.1831   10.7202 H         1 B223        0.0557
     42 H7         15.5943   -2.7977   11.0509 H         1 B223        0.0446
     43 H8         14.7784   -1.9474    9.6952 H         1 B223        0.0446
     44 H9         13.8932   -4.7341   10.5457 H         1 B223        0.0542
     45 H10        15.2605   -4.4813    9.4086 H         1 B223        0.0542
     46 H11        12.4551   -3.7759    9.0383 H         1 B223        0.1847
     47 H12        10.8435   -3.7885    7.5880 H         1 B223        0.0539
     48 H13         9.3067   -3.5592    5.6505 H         1 B223        0.0588
     49 H14        10.1686   -2.6888    3.5031 H         1 B223        0.0537
     50 H15        14.0586   -2.3317    5.2061 H         1 B223        0.0553
     51 H16        12.1359   -1.1864    2.8149 H         1 B223        0.2257
     52 H17        13.3519   -1.8041    0.0321 H         1 B223        0.0676
     53 H18        14.3718   -0.5222    0.7691 H         1 B223        0.0676
     54 H20        10.7428   -1.7159    1.4376 H         1 B223        0.0651
     55 H21        10.9838   -1.2861   -0.2898 H         1 B223        0.0651
     56 H22        11.6839    1.2778    2.2666 H         1 B223        0.0651
     57 H23        12.3408    1.7313    0.6575 H         1 B223        0.0651
@<TRIPOS>BOND
     1    1    2 2  
     2    1    3 2  
     3    1    4 am 
     4    8    1 1  
     5    6    5 ar 
     6    5   10 ar 
     7    5   11 1  
     8    7    6 ar 
     9    8    7 ar 
    10    8    9 ar 
    11    9   10 ar 
    12   11   12 1  
    13   12   13 1  
    14   13   14 am 
    15   14   15 2  
    16   14   16 1  
    17   16   17 ar 
    18   16   21 ar 
    19   17   18 ar 
    20   18   19 ar 
    21   19   20 ar 
    22   21   20 ar 
    23   20   22 1  
    24   22   23 am 
    25   23   24 2  
    26   23   25 1  
    27   25   26 1  
    28   26   27 1  
    29   26   31 1  
    30   27   28 1  
    31   28   29 ar 
    32   28   30 ar 
    33   31   32 1  
    34   32   33 ar 
    35   32   34 ar 
    36    4   36 1  
    37   30   35 1  
    38    4   37 1  
    39   34   35 1  
    40    6   38 1  
    41    7   39 1  
    42    9   40 1  
    43   10   41 1  
    44   11   42 1  
    45   11   43 1  
    46   12   44 1  
    47   12   45 1  
    48   13   46 1  
    49   17   47 1  
    50   18   48 1  
    51   19   49 1  
    52   21   50 1  
    53   22   51 1  
    54   25   52 1  
    55   25   53 1  
    56   27   54 1  
    57   27   55 1  
    58   31   56 1  
    59   31   57 1  
@<TRIPOS>SUBSTRUCTURE
     1 B223        1

