### 
### Created by X-TOOL on Fri Sep 26 17:34:31 2014
### 

@<TRIPOS>MOLECULE
2fov_ligand
   40    41     1     0     0
SMALL
GAST_HUCK


@<TRIPOS>ATOM
      1 S          -5.9240    1.0070   16.8970 S.o2      1 B30         0.0677
      2 O1         -5.3560    1.1510   18.2080 O.2       1 B30        -0.1499
      3 O2         -7.3580    1.1080   16.7330 O.2       1 B30        -0.1499
      4 N1         -5.4020   -0.3530   16.2130 N.am      1 B30        -0.2605
      5 C1         -4.1630    4.5280   14.5650 C.ar      1 B30         0.0499
      6 C2         -3.3580    3.4720   14.9930 C.ar      1 B30        -0.0401
      7 C3         -3.9010    2.4130   15.6930 C.ar      1 B30        -0.0295
      8 C4         -5.2540    2.3560   15.9480 C.ar      1 B30         0.1122
      9 C5         -6.0430    3.4210   15.5440 C.ar      1 B30        -0.0295
     10 C6         -5.5120    4.4820   14.8360 C.ar      1 B30        -0.0401
     11 C7         -3.6020    5.6860   13.8060 C.2       1 B30         0.2050
     12 O7         -4.3320    6.6850   13.6490 O.2       1 B30        -0.3847
     13 N8         -2.3660    5.5760   13.3430 N.am      1 B30        -0.2849
     14 C9         -1.7640    6.4580   12.2910 C.3       1 B30         0.0434
     15 C10        -0.8150    5.6500   11.3520 C.3       1 B30         0.0227
     16 N11        -1.3150    5.2210   10.0830 N.3       1 B30        -0.2667
     17 C12        -2.6970    5.3020    9.6580 C.3       1 B30         0.1143
     18 C13        -3.6350    4.4450   10.4730 C.2       1 B30         0.3595
     19 OXA        -4.8210    4.7490   10.5300 O.co2     1 B30        -0.2610
     20 OXB        -3.1060    3.4730   11.0350 O.co2     1 B30        -0.2610
     21 C14        -0.4260    4.7120    9.0440 C.3       1 B30         0.1143
     22 C15         0.7970    4.0460    9.6330 C.2       1 B30         0.3595
     23 OXC         0.6540    2.9120   10.1210 O.co2     1 B30        -0.2610
     24 OXD         1.8850    4.6500    9.6080 O.co2     1 B30        -0.2610
     25 CU         -1.2410    3.2140   10.4440 Cu        1 B30         2.0000
     26 H1         -4.4288   -0.5818   16.2342 H         1 B30         0.1635
     27 H2         -6.0509   -0.9693   15.7667 H         1 B30         0.1635
     28 H3         -2.2964    3.4830   14.7740 H         1 B30         0.0670
     29 H4         -3.2554    1.6170   16.0461 H         1 B30         0.0649
     30 H5         -7.0991    3.4218   15.7886 H         1 B30         0.0649
     31 H6         -6.1596    5.2807   14.4928 H         1 B30         0.0670
     32 H7         -1.7919    4.8509   13.7234 H         1 B30         0.1845
     33 H8         -1.1889    7.2582   12.7798 H         1 B30         0.0532
     34 H9         -2.5713    6.9015   11.6896 H         1 B30         0.0532
     35 H10        -0.5055    4.7484   11.9008 H         1 B30         0.0449
     36 H11         0.0647    6.2813   11.1579 H         1 B30         0.0449
     37 H13        -2.7566    4.9798    8.6079 H         1 B30         0.0650
     38 H14        -3.0244    6.3490    9.7395 H         1 B30         0.0650
     39 H15        -0.1044    5.5498    8.4079 H         1 B30         0.0650
     40 H16        -0.9732    3.9778    8.4345 H         1 B30         0.0650
@<TRIPOS>BOND
     1    1    2 2  
     2    1    3 2  
     3    1    4 am 
     4    8    1 1  
     5    6    5 ar 
     6    5   10 ar 
     7    5   11 1  
     8    7    6 ar 
     9    8    7 ar 
    10    8    9 ar 
    11    9   10 ar 
    12   11   12 2  
    13   11   13 am 
    14   13   14 1  
    15   14   15 1  
    16   15   16 1  
    17   16   17 1  
    18   16   21 1  
    19   17   18 1  
    20   18   19 ar 
    21   18   20 ar 
    22   21   22 1  
    23   22   23 ar 
    24   22   24 ar 
    25   20   25 1  
    26    4   26 1  
    27   23   25 1  
    28    4   27 1  
    29    6   28 1  
    30    7   29 1  
    31    9   30 1  
    32   10   31 1  
    33   13   32 1  
    34   14   33 1  
    35   14   34 1  
    36   15   35 1  
    37   15   36 1  
    38   17   37 1  
    39   17   38 1  
    40   21   39 1  
    41   21   40 1  
@<TRIPOS>SUBSTRUCTURE
     1 B30         1

