### 
### Created by X-TOOL on Fri Sep 26 17:34:37 2014
### 

@<TRIPOS>MOLECULE
2gej_ligand
   63    66     1     0     0
SMALL
GAST_HUCK


@<TRIPOS>ATOM
      1 N2          3.8970   50.7450   29.0900 N.pl3     1 GDD        -0.3327
      2 C2          2.7850   50.2180   29.5620 C.cat     1 GDD         0.2041
      3 N1          2.1080   50.9870   30.4790 N.am      1 GDD        -0.2478
      4 N3          2.3400   49.0060   29.1880 N.pl3     1 GDD        -0.1901
      5 C4          1.1770   48.5670   29.6750 C.2       1 GDD         0.3268
      6 C5          0.4210   49.3130   30.5890 C.2       1 GDD         0.2558
      7 C6          0.8950   50.5660   31.0030 C.2       1 GDD         0.2628
      8 O6          0.2980   51.3090   31.8090 O.2       1 GDD        -0.3594
      9 N7         -0.6790   48.5960   30.9040 N.2       1 GDD        -0.1929
     10 C8         -0.6290   47.4460   30.2110 C.2       1 GDD         0.1855
     11 N9          0.5100   47.4330   29.4740 N.pl3     1 GDD        -0.0954
     12 C1'         0.9030   46.3890   28.5600 C.3       1 GDD         0.2218
     13 C2'         1.1970   45.1680   29.3470 C.3       1 GDD         0.1407
     14 O2'         2.5580   45.2820   29.7140 O.3       1 GDD        -0.3835
     15 C3'         0.9410   44.1010   28.2610 C.3       1 GDD         0.1151
     16 O3'         2.0160   43.9440   27.3050 O.3       1 GDD        -0.3864
     17 C4'        -0.2680   44.7010   27.4790 C.3       1 GDD         0.1190
     18 O4'        -0.3730   46.0720   27.9330 O.3       1 GDD        -0.3347
     19 C5'        -1.5400   43.9270   27.8040 C.3       1 GDD         0.1128
     20 O5'        -1.6910   43.7040   29.1710 O.3       1 GDD        -0.2476
     21 PA         -3.0770   44.0560   29.8520 P.3       1 GDD         0.2972
     22 O1A        -3.1420   43.4550   31.2510 O.co2     1 GDD        -0.6127
     23 O2A        -3.3660   45.5330   29.8420 O.co2     1 GDD        -0.6127
     24 O3A        -4.0670   43.0490   29.0530 O.3       1 GDD        -0.1318
     25 PB         -5.3360   43.5260   28.2250 P.3       1 GDD         0.2997
     26 O2B        -6.3190   44.1200   29.4230 O.co2     1 GDD        -0.6127
     27 O3B        -4.9920   44.5010   27.1840 O.co2     1 GDD        -0.6127
     28 O1B        -5.9630   42.1740   27.6880 O.3       1 GDD        -0.2154
     29 C11        -5.3770   41.4960   26.5960 C.3       1 GDD         0.2226
     30 O51        -4.0130   41.1410   27.0330 O.3       1 GDD        -0.3364
     31 C51        -3.9440   40.0680   28.0260 C.3       1 GDD         0.1133
     32 C61        -2.4510   39.9310   28.0760 C.3       1 GDD         0.0730
     33 O6A        -2.1020   38.7740   27.3930 O.3       1 GDD        -0.3924
     34 C21        -6.3110   40.3110   26.2860 C.3       1 GDD         0.1392
     35 O21        -5.8500   39.6130   25.1620 O.3       1 GDD        -0.3837
     36 C31        -6.2710   39.2660   27.3780 C.3       1 GDD         0.1144
     37 O31        -7.1340   38.1450   27.0260 O.3       1 GDD        -0.3864
     38 C41        -4.7770   38.8280   27.6260 C.3       1 GDD         0.1119
     39 O41        -4.7000   37.8280   28.6650 O.3       1 GDD        -0.3865
     40 H           4.4582   50.2292   28.4122 H         1 GDD         0.1774
     41 H           4.1964   51.6686   29.4025 H         1 GDD         0.1774
     42 H           2.5031   51.8787   30.7777 H         1 GDD         0.1819
     43 H           2.8819   48.4312   28.5428 H         1 GDD         0.2519
     44 H          -1.3787   46.6552   30.2366 H         1 GDD         0.1823
     45 H           1.7368   46.6676   27.9156 H         1 GDD         0.1021
     46 H           0.6366   44.9682   30.2603 H         1 GDD         0.0677
     47 H           3.0988   45.3307   28.9223 H         1 GDD         0.2101
     48 H           0.8060   43.1236   28.7243 H         1 GDD         0.0648
     49 H           2.8175   43.6859   27.7660 H         1 GDD         0.2100
     50 H          -0.1293   44.6440   26.3994 H         1 GDD         0.0651
     51 H          -1.4811   42.9579   27.3086 H         1 GDD         0.0648
     52 H          -2.3905   44.5170   27.4624 H         1 GDD         0.0648
     53 H          -5.2737   42.0615   25.6699 H         1 GDD         0.0999
     54 H          -4.3881   40.2416   29.0062 H         1 GDD         0.0647
     55 H          -2.1131   39.8733   29.1107 H         1 GDD         0.0584
     56 H          -1.9781   40.7976   27.6139 H         1 GDD         0.0584
     57 H          -2.5186   38.0179   27.8129 H         1 GDD         0.2095
     58 H          -7.3033   40.7443   26.1609 H         1 GDD         0.0675
     59 H          -6.4397   38.8778   24.9792 H         1 GDD         0.2101
     60 H          -6.6525   39.6780   28.3123 H         1 GDD         0.0648
     61 H          -6.8303   37.7549   26.2031 H         1 GDD         0.2100
     62 H          -4.3793   38.3950   26.7082 H         1 GDD         0.0647
     63 H          -3.7831   37.5769   28.7986 H         1 GDD         0.2100
@<TRIPOS>BOND
     1    1    2 ar 
     2    2    3 ar 
     3    2    4 ar 
     4    3    7 am 
     5    4    5 1  
     6    5    6 2  
     7    5   11 1  
     8    6    7 1  
     9    6    9 1  
    10    7    8 2  
    11    9   10 2  
    12   10   11 1  
    13   11   12 1  
    14   12   13 1  
    15   12   18 1  
    16   13   14 1  
    17   13   15 1  
    18   15   16 1  
    19   15   17 1  
    20   17   18 1  
    21   17   19 1  
    22   19   20 1  
    23   20   21 1  
    24   21   22 ar 
    25   21   23 ar 
    26   21   24 1  
    27   24   25 1  
    28   25   26 ar 
    29   25   27 ar 
    30   25   28 1  
    31   28   29 1  
    32   29   30 1  
    33   29   34 1  
    34   30   31 1  
    35   31   32 1  
    36   31   38 1  
    37   32   33 1  
    38   34   35 1  
    39   34   36 1  
    40   36   37 1  
    41   36   38 1  
    42   38   39 1  
    43    1   40 1  
    44    1   41 1  
    45    3   42 1  
    46    4   43 1  
    47   10   44 1  
    48   12   45 1  
    49   13   46 1  
    50   14   47 1  
    51   15   48 1  
    52   16   49 1  
    53   17   50 1  
    54   19   51 1  
    55   19   52 1  
    56   29   53 1  
    57   31   54 1  
    58   32   55 1  
    59   32   56 1  
    60   33   57 1  
    61   34   58 1  
    62   35   59 1  
    63   36   60 1  
    64   37   61 1  
    65   38   62 1  
    66   39   63 1  
@<TRIPOS>SUBSTRUCTURE
     1 GDD         1

