### 
### Created by X-TOOL on Fri Sep 26 17:34:38 2014
### 

@<TRIPOS>MOLECULE
2ovz_ligand
   68    72     1     0     0
SMALL
GAST_HUCK


@<TRIPOS>ATOM
      1 CD2        24.8640   14.9380   50.1610 C.ar      1 MOL        -0.0214
      2 CE3        25.3170   15.8600   51.0970 C.ar      1 MOL        -0.0747
      3 CZ3        25.8660   17.0680   50.6680 C.ar      1 MOL        -0.0792
      4 CH2        25.9610   17.3470   49.3080 C.ar      1 MOL        -0.0768
      5 CZ2        25.5090   16.4210   48.3720 C.ar      1 MOL        -0.0443
      6 CE2        24.9590   15.2150   48.8010 C.ar      1 MOL         0.0603
      7 NE1        24.4550   14.1740   48.1460 N.pl3     1 MOL        -0.2890
      8 CD1        24.0470   13.2560   49.0210 C.2       1 MOL         0.0167
      9 CG         24.2790   13.6780   50.2620 C.2       1 MOL        -0.0418
     10 CB         23.9680   12.9050   51.5470 C.3       1 MOL         0.0042
     11 CA         25.1260   11.9860   51.9460 C.3       1 MOL         0.1348
     12 C          24.6980   11.1230   53.1400 C.2       1 MOL         0.2004
     13 O          24.0170   10.1140   53.0010 O.2       1 MOL        -0.3946
     14 NAA        25.1040   11.5820   54.3230 N.am      1 MOL        -0.2989
     15 N          25.4950   11.1720   50.7790 N.am      1 MOL        -0.2642
     16 CBD        26.7560   10.9980   50.3860 C.2       1 MOL         0.1852
     17 OAC        27.7310   11.4560   50.9820 O.2       1 MOL        -0.3964
     18 CBL        26.9160   10.1820   49.1010 C.3       1 MOL         0.0780
     19 CAX        27.2610   11.1590   47.9730 C.3       1 MOL         0.0354
     20 PBN        27.1230   10.3890   46.3420 P.3       1 MOL         0.0102
     21 OAE        28.3410    9.3390   46.3070 O.co2     1 MOL        -0.6194
     22 OAD        25.8380    9.6590   46.2860 O.co2     1 MOL        -0.6194
     23 CBG        27.4560   11.6440   45.0910 C.ar      1 MOL         0.0292
     24 CAP        28.6420   11.6070   44.3660 C.ar      1 MOL        -0.0398
     25 CAJ        28.8810   12.5520   43.3700 C.ar      1 MOL        -0.0557
     26 CAG        27.9330   13.5330   43.1030 C.ar      1 MOL        -0.0573
     27 CAK        26.7450   13.5720   43.8310 C.ar      1 MOL        -0.0557
     28 CAQ        26.5070   12.6290   44.8240 C.ar      1 MOL        -0.0398
     29 CAV        28.0330    9.1410   49.2180 C.3       1 MOL         0.0421
     30 CBF        27.6920    7.9160   50.0690 C.2       1 MOL         0.1411
     31 CAU        26.5380    7.2650   50.2060 C.2       1 MOL        -0.0269
     32 OBB        28.6550    7.2280   50.7460 O.3       1 MOL        -0.1670
     33 NAY        28.0070    6.1080   51.3010 N.2       1 MOL        -0.1519
     34 CBH        26.7270    6.1760   50.9480 C.2       1 MOL         0.0430
     35 CBE        25.7640    5.2260   51.2870 C.ar      1 MOL        -0.0150
     36 CAN        24.4790    5.2940   50.7550 C.ar      1 MOL        -0.0551
     37 CAH        23.5300    4.3300   51.0800 C.ar      1 MOL        -0.0621
     38 CAF        23.8630    3.2900   51.9420 C.ar      1 MOL        -0.0626
     39 CAI        25.1460    3.2200   52.4760 C.ar      1 MOL        -0.0621
     40 CAO        26.0940    4.1870   52.1490 C.ar      1 MOL        -0.0551
     41 H1         25.2439   15.6411   52.1561 H         1 MOL         0.0540
     42 H2         26.2192   17.7905   51.3948 H         1 MOL         0.0510
     43 H3         26.3877   18.2869   48.9769 H         1 MOL         0.0530
     44 H4         25.5847   16.6376   47.3126 H         1 MOL         0.0541
     45 H5         24.3900   14.0901   47.1215 H         1 MOL         0.2216
     46 H6         23.5913   12.3020   48.7598 H         1 MOL         0.0795
     47 H7         23.0668   12.2949   51.3874 H         1 MOL         0.0397
     48 H8         23.7855   13.6229   52.3602 H         1 MOL         0.0397
     49 H9         25.9921   12.5955   52.2433 H         1 MOL         0.0815
     50 H10        24.8718   11.0845   55.1588 H         1 MOL         0.1815
     51 H11        25.6410   12.4240   54.3751 H         1 MOL         0.1815
     52 H12        24.7666   10.7288   50.2565 H         1 MOL         0.1884
     53 H13        25.9696    9.6687   48.8758 H         1 MOL         0.0580
     54 H14        28.2934   11.5120   48.1126 H         1 MOL         0.0485
     55 H15        26.5712   12.0145   48.0211 H         1 MOL         0.0485
     56 H16        29.3813   10.8424   44.5757 H         1 MOL         0.0676
     57 H17        29.8051   12.5221   42.8041 H         1 MOL         0.0630
     58 H18        28.1178   14.2682   42.3281 H         1 MOL         0.0654
     59 H19        26.0066   14.3378   43.6227 H         1 MOL         0.0630
     60 H20        25.5834   12.6597   45.3906 H         1 MOL         0.0676
     61 H21        28.9109    9.6317   49.6635 H         1 MOL         0.0513
     62 H22        28.2822    8.7932   48.2046 H         1 MOL         0.0513
     63 H23        25.5865    7.5758   49.7771 H         1 MOL         0.0289
     64 H24        24.2164    6.1033   50.0833 H         1 MOL         0.0616
     65 H25        22.5317    4.3892   50.6618 H         1 MOL         0.0615
     66 H26        23.1258    2.5371   52.1966 H         1 MOL         0.0610
     67 H27        25.4085    2.4110   53.1481 H         1 MOL         0.0615
     68 H28        27.0920    4.1289   52.5681 H         1 MOL         0.0616
@<TRIPOS>BOND
     1    1    2 ar 
     2    1    6 ar 
     3    1    9 1  
     4    2    3 ar 
     5    3    4 ar 
     6    4    5 ar 
     7    5    6 ar 
     8    6    7 1  
     9    7    8 1  
    10    8    9 2  
    11    9   10 1  
    12   10   11 1  
    13   11   12 1  
    14   11   15 1  
    15   12   13 2  
    16   12   14 am 
    17   15   16 am 
    18   16   17 2  
    19   16   18 1  
    20   18   19 1  
    21   18   29 1  
    22   19   20 1  
    23   20   21 ar 
    24   20   22 ar 
    25   20   23 1  
    26   23   24 ar 
    27   23   28 ar 
    28   24   25 ar 
    29   25   26 ar 
    30   26   27 ar 
    31   27   28 ar 
    32   29   30 1  
    33   30   31 2  
    34   30   32 1  
    35   31   34 1  
    36   32   33 1  
    37   33   34 2  
    38   34   35 1  
    39   35   36 ar 
    40   35   40 ar 
    41   36   37 ar 
    42   37   38 ar 
    43   38   39 ar 
    44   39   40 ar 
    45    2   41 1  
    46    3   42 1  
    47    4   43 1  
    48    5   44 1  
    49    7   45 1  
    50    8   46 1  
    51   10   47 1  
    52   10   48 1  
    53   11   49 1  
    54   14   50 1  
    55   14   51 1  
    56   15   52 1  
    57   18   53 1  
    58   19   54 1  
    59   19   55 1  
    60   24   56 1  
    61   25   57 1  
    62   26   58 1  
    63   27   59 1  
    64   28   60 1  
    65   29   61 1  
    66   29   62 1  
    67   31   63 1  
    68   36   64 1  
    69   37   65 1  
    70   38   66 1  
    71   39   67 1  
    72   40   68 1  
@<TRIPOS>SUBSTRUCTURE
     1 MOL         1

