### 
### Created by X-TOOL on Fri Sep 26 17:34:46 2014
### 

@<TRIPOS>MOLECULE
2rok_ligand
   82    87     1     0     0
SMALL
GAST_HUCK


@<TRIPOS>ATOM
      1 P          -9.7030   -3.2220   11.6400 P.3       1 MOL         0.2978
      2 OP1       -10.8260   -2.3110   11.9650 O.co2     1 MOL        -0.6127
      3 OP2        -9.5420   -3.6660   10.2340 O.co2     1 MOL        -0.6127
      4 O5'        -8.3300   -2.5090   12.0950 O.3       1 MOL        -0.2476
      5 C5'        -7.0740   -3.1550   11.9540 C.3       1 MOL         0.1128
      6 C4'        -5.8940   -2.2410   12.3250 C.3       1 MOL         0.1183
      7 O4'        -5.7720   -1.1240   11.4600 O.3       1 MOL        -0.3410
      8 C3'        -5.9510   -1.6800   13.7530 C.3       1 MOL         0.1143
      9 O3'        -5.4970   -2.5880   14.7560 O.3       1 MOL        -0.3864
     10 C2'        -5.0330   -0.4550   13.6240 C.3       1 MOL         0.1331
     11 O2'        -3.6480   -0.7940   13.7150 O.3       1 MOL        -0.3842
     12 C1'        -5.3400    0.0130   12.1970 C.3       1 MOL         0.1871
     13 N9         -6.4370    1.0040   12.1260 N.pl3     1 MOL        -0.1882
     14 C8         -7.7940    0.7580   12.1650 C.3       1 MOL         0.0746
     15 N7         -8.4800    1.9280   11.7730 N.4       1 MOL         0.2939
     16 C5         -7.5020    2.8630   11.5790 C.3       1 MOL         0.1697
     17 C6         -7.6080    4.1980   11.1560 C.2       1 MOL         0.2895
     18 O6         -8.6070    4.8220   10.8320 O.2       1 MOL        -0.3702
     19 N1         -6.4220    4.8360   11.1060 N.am      1 MOL        -0.1936
     20 C2         -5.2730    4.2450   11.3500 C.2       1 MOL         0.1504
     21 N2         -4.2610    5.0170   11.2160 N.2       1 MOL        -0.4049
     22 N3         -5.0900    3.0070   11.7380 N.2       1 MOL        -0.2476
     23 C4         -6.2670    2.3410   11.8250 C.2       1 MOL         0.2074
     24 CM7        -9.9720    1.9390   11.6380 C.3       1 MOL        -0.0358
     25 PB        -10.2780   -4.7520   13.9580 P.3       1 MOL         0.3355
     26 O1B        -9.4520   -5.8960   14.4250 O.co2     1 MOL        -0.6079
     27 O2B       -11.7530   -4.9360   13.8850 O.co2     1 MOL        -0.6079
     28 O3B        -9.8160   -4.5290   12.4870 O.3       1 MOL        -0.1265
     29 O3A        -9.9270   -3.4670   14.7260 O.3       1 MOL        -0.1265
     30 PA         -9.8110   -3.4180   16.2620 P.3       1 MOL         0.2978
     31 O1A        -8.3950   -3.6340   16.6670 O.co2     1 MOL        -0.6127
     32 O2A       -10.8750   -4.2050   16.9470 O.co2     1 MOL        -0.6127
     33 O5'       -10.1410   -1.8660   16.6000 O.3       1 MOL        -0.2476
     34 C5'        -9.5580   -0.7830   15.8750 C.3       1 MOL         0.1128
     35 C4'        -8.1270   -0.4400   16.3240 C.3       1 MOL         0.1190
     36 O4'        -7.6250    0.5600   15.4400 O.3       1 MOL        -0.3347
     37 C3'        -8.0690    0.1220   17.7550 C.3       1 MOL         0.1151
     38 O3'        -6.8360   -0.2270   18.3920 O.3       1 MOL        -0.3864
     39 C2'        -8.1410    1.6290   17.4780 C.3       1 MOL         0.1407
     40 O2'        -7.6120    2.4260   18.5340 O.3       1 MOL        -0.3835
     41 C1'        -7.3230    1.7250   16.1880 C.3       1 MOL         0.2218
     42 N9         -7.6380    2.9380   15.4040 N.pl3     1 MOL        -0.0954
     43 C8         -8.8580    3.3660   14.9480 C.2       1 MOL         0.1855
     44 N7         -8.8390    4.5540   14.3960 N.2       1 MOL        -0.1929
     45 C5         -7.4900    4.9330   14.4700 C.2       1 MOL         0.2558
     46 C6         -6.7950    6.1190   14.0290 C.2       1 MOL         0.2628
     47 O6         -7.2430    7.1380   13.5010 O.2       1 MOL        -0.3594
     48 N1         -5.4270    6.0560   14.2190 N.am      1 MOL        -0.2478
     49 C2         -4.7940    4.9990   14.7840 C.cat     1 MOL         0.2041
     50 N2         -3.4930    5.0550   14.8520 N.pl3     1 MOL        -0.3327
     51 N3         -5.3960    3.9030   15.2390 N.pl3     1 MOL        -0.1901
     52 C4         -6.7480    3.9240   15.0490 C.2       1 MOL         0.3268
     53 H1         -6.9572   -3.4738   10.9077 H         1 MOL         0.0648
     54 H2         -7.0560   -4.0375   12.6104 H         1 MOL         0.0648
     55 H3         -4.9816   -2.8489   12.2353 H         1 MOL         0.0651
     56 H4         -6.9775   -1.3746   14.0040 H         1 MOL         0.0648
     57 H5         -5.5606   -2.1750   15.6092 H         1 MOL         0.2100
     58 H6         -5.2808    0.3114   14.3731 H         1 MOL         0.0670
     59 H7         -3.1231   -0.0068   13.6299 H         1 MOL         0.2101
     60 H8         -4.4301    0.4416   11.7517 H         1 MOL         0.0925
     61 H9         -8.0903    0.4808   13.1874 H         1 MOL         0.1132
     62 H10        -8.0408   -0.0634   11.4763 H         1 MOL         0.1132
     63 H11        -8.6070    2.2434   12.7219 H         1 MOL         0.2109
     64 H12        -7.6172    3.2076   12.6172 H         1 MOL         0.1458
     65 H13        -6.4154    5.8081   10.8715 H         1 MOL         0.2419
     66 H14        -3.3316    4.6628   11.3799 H         1 MOL         0.0450
     67 H15       -10.3711    0.9480   11.8999 H         1 MOL         0.0779
     68 H16       -10.2445    2.1815   10.6003 H         1 MOL         0.0779
     69 H17       -10.3959    2.6955   12.3148 H         1 MOL         0.0779
     70 H18       -10.1886    0.1076   16.0135 H         1 MOL         0.0648
     71 H19        -9.5326   -1.0521   14.8087 H         1 MOL         0.0648
     72 H20        -7.5037   -1.3446   16.2666 H         1 MOL         0.0651
     73 H21        -8.9163   -0.2230   18.3658 H         1 MOL         0.0648
     74 H22        -6.8224    0.1297   19.2724 H         1 MOL         0.2100
     75 H23        -9.1813    1.9397   17.3014 H         1 MOL         0.0677
     76 H24        -7.6847    3.3449   18.3041 H         1 MOL         0.2101
     77 H25        -6.2517    1.7394   16.4371 H         1 MOL         0.1021
     78 H26        -9.7649    2.7697   15.0370 H         1 MOL         0.1823
     79 H27        -4.8733    6.8342   13.9228 H         1 MOL         0.1819
     80 H28        -2.9653    4.2768   15.2725 H         1 MOL         0.1774
     81 H29        -2.9930    5.8774   14.4852 H         1 MOL         0.1774
     82 H30        -4.8955    3.1221   15.6868 H         1 MOL         0.2519
@<TRIPOS>BOND
     1    1    2 ar 
     2    1    3 ar 
     3    1    4 1  
     4   28    1 1  
     5    4    5 1  
     6    5    6 1  
     7    6    7 1  
     8    6    8 1  
     9    7   12 1  
    10    8    9 1  
    11    8   10 1  
    12   10   11 1  
    13   10   12 1  
    14   12   13 1  
    15   13   14 1  
    16   13   23 1  
    17   14   15 1  
    18   16   15 1  
    19   15   24 1  
    20   16   17 1  
    21   23   16 1  
    22   17   18 2  
    23   17   19 am 
    24   20   19 1  
    25   20   21 2  
    26   22   20 1  
    27   23   22 2  
    28   25   26 ar 
    29   25   27 ar 
    30   25   28 1  
    31   25   29 1  
    32   29   30 1  
    33   30   31 ar 
    34   30   32 ar 
    35   30   33 1  
    36   33   34 1  
    37   34   35 1  
    38   35   36 1  
    39   35   37 1  
    40   36   41 1  
    41   37   38 1  
    42   37   39 1  
    43   39   40 1  
    44   39   41 1  
    45   41   42 1  
    46   42   43 1  
    47   42   52 1  
    48   43   44 2  
    49   44   45 1  
    50   45   46 1  
    51   45   52 2  
    52   46   47 2  
    53   46   48 am 
    54   48   49 ar 
    55   49   50 ar 
    56   49   51 ar 
    57   51   52 1  
    58    5   53 1  
    59    5   54 1  
    60    6   55 1  
    61    8   56 1  
    62    9   57 1  
    63   10   58 1  
    64   11   59 1  
    65   12   60 1  
    66   14   61 1  
    67   14   62 1  
    68   15   63 1  
    69   16   64 1  
    70   19   65 1  
    71   21   66 1  
    72   24   67 1  
    73   24   68 1  
    74   24   69 1  
    75   34   70 1  
    76   34   71 1  
    77   35   72 1  
    78   37   73 1  
    79   38   74 1  
    80   39   75 1  
    81   40   76 1  
    82   41   77 1  
    83   43   78 1  
    84   48   79 1  
    85   50   80 1  
    86   50   81 1  
    87   51   82 1  
@<TRIPOS>SUBSTRUCTURE
     1 MOL         1

