### 
### Created by X-TOOL on Fri Sep 26 17:34:44 2014
### 

@<TRIPOS>MOLECULE
2w73_ligand
  280   278     1     0     0
SMALL
GAST_HUCK


@<TRIPOS>ATOM
      1 N           9.5360   22.3850   21.4480 N.4       1 VAL         0.2381
      2 CA         10.4910   21.3340   21.0890 C.3       1 VAL         0.0673
      3 C          11.0960   20.6910   22.3190 C.2       1 VAL         0.2270
      4 O          11.5510   19.5240   22.3100 O.2       1 VAL        -0.3907
      5 CB         11.6500   21.9150   20.2360 C.3       1 VAL         0.0139
      6 CG1        12.5970   20.8060   19.7650 C.3       1 VAL        -0.0553
      7 CG2        11.1120   22.7250   19.0510 C.3       1 VAL        -0.0553
      8 N          11.1000   21.4700   23.3830 N.am      1 VAL        -0.2607
      9 CA         11.7710   21.0450   24.6150 C.3       1 VAL         0.1336
     10 C          10.9430   19.9220   25.1900 C.2       1 VAL         0.2042
     11 O          11.4340   18.9050   25.6980 O.2       1 VAL        -0.3944
     12 CB         11.9660   22.2030   25.6200 C.3       1 VAL        -0.0037
     13 CG1        12.4490   23.4670   24.8910 C.3       1 VAL        -0.0491
     14 CG2        12.9590   21.7740   26.7090 C.3       1 VAL        -0.0582
     15 CD1        11.3190   24.3360   24.2650 C.3       1 VAL        -0.0648
     16 N           9.6490   20.1150   25.0800 N.am      1 VAL        -0.2637
     17 CA          8.6900   19.1750   25.6870 C.3       1 VAL         0.1311
     18 C           8.7230   17.8800   24.8900 C.2       1 VAL         0.2040
     19 O           8.5580   16.7830   25.4230 O.2       1 VAL        -0.3944
     20 CB          7.2930   19.7760   25.8670 C.3       1 VAL        -0.0092
     21 CG          7.2310   20.5010   27.1960 C.3       1 VAL        -0.0156
     22 CD          5.8320   20.6140   27.6980 C.3       1 VAL         0.0627
     23 NE          5.3180   21.9690   27.6630 N.pl3     1 VAL        -0.2723
     24 CZ          4.0370   22.2400   27.8480 C.cat     1 VAL         0.2882
     25 NH1         3.1940   21.2430   28.0610 N.pl3     1 VAL        -0.2849
     26 NH2         3.5950   23.4820   27.8190 N.pl3     1 VAL        -0.2849
     27 N           8.9630   18.0390   23.6020 N.am      1 VAL        -0.2616
     28 CA          9.1200   16.8860   22.7040 C.3       1 VAL         0.1476
     29 C          10.3230   16.0740   23.0840 C.2       1 VAL         0.2063
     30 O          10.2850   14.8570   23.0700 O.2       1 VAL        -0.3942
     31 CB          9.3040   17.2840   21.2420 C.3       1 VAL         0.0773
     32 CG          8.0510   17.8200   20.6230 C.2       1 VAL         0.1780
     33 OD1         6.9560   17.3100   20.8610 O.2       1 VAL        -0.3970
     34 ND2         8.2000   18.8540   19.8100 N.am      1 VAL        -0.3007
     35 N          11.3940   16.7960   23.4000 N.am      1 VAL        -0.2636
     36 CA         12.6690   16.1550   23.7830 C.3       1 VAL         0.1310
     37 C          12.4690   15.3850   25.0610 C.2       1 VAL         0.2039
     38 O          12.9880   14.2800   25.2530 O.2       1 VAL        -0.3944
     39 CB         13.8010   17.1640   23.9600 C.3       1 VAL        -0.0122
     40 CG         15.1840   16.5440   24.0600 C.3       1 VAL        -0.0440
     41 CD         15.8620   16.4430   22.7070 C.3       1 VAL        -0.0124
     42 CE         16.1710   17.8300   22.2470 C.3       1 VAL        -0.0354
     43 NZ         17.5360   17.9320   21.6450 N.4       1 VAL         0.2185
     44 N          11.6980   15.9920   25.9420 N.am      1 VAL        -0.2635
     45 CA         11.4860   15.4170   27.2790 C.3       1 VAL         0.1335
     46 C          10.6940   14.1150   27.1440 C.2       1 VAL         0.2042
     47 O          11.0300   13.1000   27.7500 O.2       1 VAL        -0.3944
     48 CB         10.8470   16.4000   28.2850 C.3       1 VAL        -0.0037
     49 CG1        11.8800   17.4540   28.6630 C.3       1 VAL        -0.0491
     50 CG2        10.2810   15.6310   29.4870 C.3       1 VAL        -0.0582
     51 CD1        11.2570   18.6960   29.2140 C.3       1 VAL        -0.0648
     52 N           9.6550   14.1590   26.3370 N.am      1 VAL        -0.2637
     53 CA          8.8300   12.9620   26.1060 C.3       1 VAL         0.1311
     54 C           9.6520   11.8690   25.4600 C.2       1 VAL         0.2039
     55 O           9.5090   10.7200   25.7860 O.2       1 VAL        -0.3944
     56 CB          7.5650   13.2380   25.3150 C.3       1 VAL        -0.0092
     57 CG          6.4290   13.6260   26.2230 C.3       1 VAL        -0.0156
     58 CD          5.1370   13.8920   25.4540 C.3       1 VAL         0.0627
     59 NE          4.1680   14.6000   26.2840 N.pl3     1 VAL        -0.2723
     60 CZ          3.3840   14.0170   27.1880 C.cat     1 VAL         0.2882
     61 NH1         3.4550   12.6960   27.3820 N.pl3     1 VAL        -0.2849
     62 NH2         2.5390   14.7510   27.8910 N.pl3     1 VAL        -0.2849
     63 N          10.5280   12.2820   24.5670 N.am      1 VAL        -0.2640
     64 CA         11.3800   11.3480   23.8010 C.3       1 VAL         0.1282
     65 C          12.2970   10.5610   24.7360 C.2       1 VAL         0.2036
     66 O          12.4580    9.3600   24.6390 O.2       1 VAL        -0.3944
     67 CB         12.1920   12.0530   22.7280 C.3       1 VAL        -0.0244
     68 N          12.8880   11.2830   25.6600 N.am      1 VAL        -0.2635
     69 CA         13.8280   10.6950   26.6110 C.3       1 VAL         0.1335
     70 C          13.0660    9.7710   27.5440 C.2       1 VAL         0.2040
     71 O          13.5530    8.7380   27.9370 O.2       1 VAL        -0.3944
     72 CB         14.7220   11.7610   27.3420 C.3       1 VAL        -0.0037
     73 CG1        16.0000   11.1110   27.8780 C.3       1 VAL        -0.0491
     74 CG2        14.0000   12.3920   28.4750 C.3       1 VAL        -0.0582
     75 CD1        17.0080   10.6030   26.7850 C.3       1 VAL        -0.0648
     76 N          11.8580   10.1250   27.8960 N.am      1 VAL        -0.2664
     77 CA         11.0700    9.2910   28.7950 C.3       1 VAL         0.1201
     78 C          10.7000    7.9830   28.1140 C.2       1 VAL         0.2007
     79 O          10.6980    6.9130   28.7130 O.2       1 VAL        -0.3947
     80 N          10.3940    8.1170   26.8540 N.am      1 VAL        -0.2640
     81 CA         10.1280    6.8980   26.0320 C.3       1 VAL         0.1310
     82 C          11.3030    5.9540   25.9710 C.2       1 VAL         0.2039
     83 O          11.2260    4.7330   26.1680 O.2       1 VAL        -0.3944
     84 CB          9.7760    7.2780   24.6200 C.3       1 VAL        -0.0122
     85 CG          9.3030    6.1220   23.8510 C.3       1 VAL        -0.0440
     86 CD          8.5660    6.5880   22.5900 C.3       1 VAL        -0.0124
     87 CE          8.3200    5.4210   21.6510 C.3       1 VAL        -0.0354
     88 NZ          9.5620    4.6040   21.4890 N.4       1 VAL         0.2185
     89 N          12.4400    6.5520   25.6910 N.am      1 VAL        -0.2637
     90 CA         13.6850    5.7980   25.5780 C.3       1 VAL         0.1317
     91 C          14.0450    5.1790   26.9090 C.2       1 VAL         0.2039
     92 O          14.5950    4.0830   27.0030 O.2       1 VAL        -0.3944
     93 CB         14.8120    6.6740   25.0440 C.3       1 VAL        -0.0034
     94 CG         14.7740    6.9130   23.5510 C.3       1 VAL        -0.0024
     95 SD         14.4980    5.4280   22.5580 S.3       1 VAL        -0.1639
     96 CE         12.7450    5.5850   22.1070 C.3       1 VAL        -0.0181
     97 N          13.7180    5.8840   27.9720 N.am      1 VAL        -0.2640
     98 CA         14.0770    5.4080   29.3090 C.3       1 VAL         0.1282
     99 C          13.4170    4.0700   29.5920 C.2       1 VAL         0.2036
    100 O          13.9590    3.1340   30.1970 O.2       1 VAL        -0.3944
    101 CB         13.6980    6.4330   30.4020 C.3       1 VAL        -0.0244
    102 N          12.1860    3.9820   29.1470 N.am      1 VAL        -0.2637
    103 CA         11.4070    2.7450   29.3870 C.3       1 VAL         0.1311
    104 C          11.8390    1.6230   28.4550 C.2       1 VAL         0.2040
    105 O          11.8500    0.4600   28.8590 O.2       1 VAL        -0.3944
    106 CB          9.8760    2.9570   29.4500 C.3       1 VAL        -0.0092
    107 CG          9.1870    3.6510   28.3150 C.3       1 VAL        -0.0156
    108 CD          7.6730    3.4790   28.4050 C.3       1 VAL         0.0627
    109 NE          7.2240    2.3240   27.6310 N.pl3     1 VAL        -0.2723
    110 CZ          6.9360    1.1190   28.1260 C.cat     1 VAL         0.2882
    111 NH1         7.0350    0.8650   29.4250 N.pl3     1 VAL        -0.2849
    112 NH2         6.5430    0.1600   27.3090 N.pl3     1 VAL        -0.2849
    113 N          12.1800    1.9750   27.2200 N.am      1 VAL        -0.2647
    114 CA         12.6010    0.9670   26.2140 C.3       1 VAL         0.1151
    115 C          13.9300    0.3390   26.5470 C.2       1 VAL         0.1247
    116 O          14.1660   -0.8550   26.3590 O.2       1 VAL        -0.3724
    117 CB         12.5960    1.5500   24.7370 C.3       1 VAL        -0.0076
    118 CG1        13.2200    0.5560   23.7260 C.3       1 VAL        -0.0584
    119 CG2        11.1850    1.9110   24.3390 C.3       1 VAL        -0.0584
    120 N          15.4830    0.1260   29.4850 N.4       1 SER         0.2343
    121 CA         15.6150   -0.5070   30.8070 C.3       1 SER         0.0519
    122 C          14.9120   -1.8930   30.8390 C.2       1 SER         0.0867
    123 O          15.0650   -2.6860   29.8910 O.co2     1 SER        -0.5642
    124 CB         15.1780    0.4310   31.9420 C.3       1 SER         0.0987
    125 OG         13.9020    0.9770   31.7030 O.3       1 SER        -0.3876
    126 OXT        14.1930   -2.2950   31.7710 O.co2     1 SER        -0.5642
    127 H1          8.7921   21.9885   22.0008 H         1 VAL         0.2015
    128 H2          9.1516   22.7906   20.6091 H         1 VAL         0.2015
    129 H3         10.0069   23.0991   21.9813 H         1 VAL         0.2015
    130 H4          9.9620   20.5660   20.5057 H         1 VAL         0.1101
    131 H5         12.2268   22.5994   20.8754 H         1 VAL         0.0376
    132 H6         13.4067   21.2459   19.1642 H         1 VAL         0.0236
    133 H7         12.0385   20.0821   19.1535 H         1 VAL         0.0236
    134 H8         13.0257   20.2941   20.6392 H         1 VAL         0.0236
    135 H9         10.4371   23.5111   19.4205 H         1 VAL         0.0236
    136 H10        10.5610   22.0585   18.3712 H         1 VAL         0.0236
    137 H11        11.9518   23.1867   18.5110 H         1 VAL         0.0236
    138 H12        10.6415   22.3580   23.3491 H         1 VAL         0.1885
    139 H13        12.7674   20.6560   24.3583 H         1 VAL         0.0803
    140 H14        10.9993   22.4248   26.0957 H         1 VAL         0.0345
    141 H15        13.1284   23.1569   24.0834 H         1 VAL         0.0267
    142 H16        12.9978   24.0892   25.6133 H         1 VAL         0.0267
    143 H17        12.5850   20.8691   27.2103 H         1 VAL         0.0235
    144 H18        13.0672   22.5833   27.4461 H         1 VAL         0.0235
    145 H19        13.9364   21.5620   26.2511 H         1 VAL         0.0235
    146 H20        11.7623   25.2120   23.7690 H         1 VAL         0.0230
    147 H21        10.6329   24.6711   25.0568 H         1 VAL         0.0230
    148 H22        10.7635   23.7389   23.5269 H         1 VAL         0.0230
    149 H23         9.3097   20.9103   24.5777 H         1 VAL         0.1883
    150 H24         9.0547   18.9411   26.6981 H         1 VAL         0.0800
    151 H25         6.5418   18.9727   25.8506 H         1 VAL         0.0313
    152 H26         7.0894   20.4851   25.0511 H         1 VAL         0.0313
    153 H27         7.6473   21.5114   27.0706 H         1 VAL         0.0301
    154 H28         7.8303   19.9463   27.9329 H         1 VAL         0.0301
    155 H29         5.8043   20.2569   28.7380 H         1 VAL         0.0689
    156 H30         5.1851   19.9790   27.0749 H         1 VAL         0.0689
    157 H31         5.9716   22.7457   27.4884 H         1 VAL         0.2642
    158 H32         2.1930   21.4372   28.2069 H         1 VAL         0.2615
    159 H33         3.5386   20.2726   28.0809 H         1 VAL         0.2615
    160 H34         4.2512   24.2584   27.6532 H         1 VAL         0.2615
    161 H35         2.5936   23.6757   27.9622 H         1 VAL         0.2615
    162 H36         9.0397   18.9637   23.2291 H         1 VAL         0.1885
    163 H37         8.2182   16.2621   22.7909 H         1 VAL         0.0826
    164 H38         9.6247   16.3979   20.6745 H         1 VAL         0.0551
    165 H39        10.0832   18.0583   21.1842 H         1 VAL         0.0551
    166 H40         7.4015   19.2588   19.3644 H         1 VAL         0.1814
    167 H41         9.1110   19.2303   19.6414 H         1 VAL         0.1814
    168 H42        11.3353   17.7940   23.3780 H         1 VAL         0.1883
    169 H43        12.9562   15.4533   22.9861 H         1 VAL         0.0800
    170 H44        13.6124   17.7346   24.8813 H         1 VAL         0.0312
    171 H45        13.7915   17.8466   23.0975 H         1 VAL         0.0312
    172 H46        15.0903   15.5343   24.4862 H         1 VAL         0.0269
    173 H47        15.8045   17.1655   24.7223 H         1 VAL         0.0269
    174 H48        15.1907   15.9510   21.9877 H         1 VAL         0.0317
    175 H49        16.7921   15.8626   22.7968 H         1 VAL         0.0317
    176 H50        16.1117   18.5110   23.1088 H         1 VAL         0.0813
    177 H51        15.4276   18.1274   21.4927 H         1 VAL         0.0813
    178 H52        17.7027   18.8811   21.3492 H         1 VAL         0.1994
    179 H53        17.5993   17.3161   20.8495 H         1 VAL         0.1994
    180 H54        18.2262   17.6676   22.3304 H         1 VAL         0.1994
    181 H55        11.2523   16.8533   25.6982 H         1 VAL         0.1883
    182 H56        12.4765   15.1587   27.6818 H         1 VAL         0.0803
    183 H57        10.0074   16.9114   27.7914 H         1 VAL         0.0345
    184 H58        12.4588   17.7182   27.7657 H         1 VAL         0.0267
    185 H59        12.5538   17.0308   29.4225 H         1 VAL         0.0267
    186 H60         9.5457   14.8919   29.1362 H         1 VAL         0.0235
    187 H61         9.7924   16.3356   30.1760 H         1 VAL         0.0235
    188 H62        11.0992   15.1144   30.0101 H         1 VAL         0.0235
    189 H63        12.0453   19.4196   29.4690 H         1 VAL         0.0230
    190 H64        10.6812   18.4476   30.1177 H         1 VAL         0.0230
    191 H65        10.5861   19.1349   28.4608 H         1 VAL         0.0230
    192 H66         9.4235   15.0154   25.8756 H         1 VAL         0.1883
    193 H67         8.5134   12.5957   27.0937 H         1 VAL         0.0800
    194 H68         7.2854   12.3318   24.7577 H         1 VAL         0.0313
    195 H69         7.7557   14.0589   24.6081 H         1 VAL         0.0313
    196 H70         6.7092   14.5383   26.7700 H         1 VAL         0.0301
    197 H71         6.2530   12.8090   26.9382 H         1 VAL         0.0301
    198 H72         4.7041   12.9321   25.1359 H         1 VAL         0.0689
    199 H73         5.3654   14.5028   24.5681 H         1 VAL         0.0689
    200 H74         4.0851   15.6194   26.1622 H         1 VAL         0.2642
    201 H75         2.8483   12.2449   28.0815 H         1 VAL         0.2615
    202 H76         4.1164   12.1295   26.8319 H         1 VAL         0.2615
    203 H77         2.4889   15.7682   27.7370 H         1 VAL         0.2615
    204 H78         1.9306   14.3058   28.5928 H         1 VAL         0.2615
    205 H79        10.6200   13.2639   24.4012 H         1 VAL         0.1883
    206 H80        10.7154   10.6309   23.2969 H         1 VAL         0.0797
    207 H81        12.8061   11.3162   22.1895 H         1 VAL         0.0277
    208 H82        12.8461   12.8030   23.1966 H         1 VAL         0.0277
    209 H83        11.5118   12.5502   22.0208 H         1 VAL         0.0277
    210 H84        12.6892   12.2616   25.7141 H         1 VAL         0.1883
    211 H85        14.5200   10.0648   26.0331 H         1 VAL         0.0803
    212 H86        14.9946   12.5420   26.6169 H         1 VAL         0.0345
    213 H87        15.7086   10.2498   28.4972 H         1 VAL         0.0267
    214 H88        16.5213   11.8517   28.5021 H         1 VAL         0.0267
    215 H89        13.0779   12.8640   28.1049 H         1 VAL         0.0235
    216 H90        14.6417   13.1553   28.9392 H         1 VAL         0.0235
    217 H91        13.7452   11.6244   29.2205 H         1 VAL         0.0235
    218 H92        17.8857   10.1562   27.2750 H         1 VAL         0.0230
    219 H93        17.3284   11.4495   26.1599 H         1 VAL         0.0230
    220 H94        16.5157    9.8476   26.1550 H         1 VAL         0.0230
    221 H95        11.4702   10.9772   27.5447 H         1 VAL         0.1881
    222 H96        10.1510    9.8269   29.0748 H         1 VAL         0.0763
    223 H97        11.6585    9.0754   29.6990 H         1 VAL         0.0763
    224 H98        10.3379    9.0264   26.4418 H         1 VAL         0.1883
    225 H99         9.2769    6.3662   26.4823 H         1 VAL         0.0800
    226 H100       10.6688    7.6922   24.1288 H         1 VAL         0.0312
    227 H101        8.9831    8.0401   24.6426 H         1 VAL         0.0312
    228 H102        8.6176    5.5279   24.4733 H         1 VAL         0.0269
    229 H103       10.1642    5.5026   23.5600 H         1 VAL         0.0269
    230 H104        9.1756    7.3444   22.0741 H         1 VAL         0.0317
    231 H105        7.6005    7.0294   22.8782 H         1 VAL         0.0317
    232 H106        8.0105    5.8067   20.6684 H         1 VAL         0.0813
    233 H107        7.5217    4.7869   22.0640 H         1 VAL         0.0813
    234 H108        9.3792    3.8352   20.8632 H         1 VAL         0.1994
    235 H109        9.8480    4.2457   22.3867 H         1 VAL         0.1994
    236 H110       10.2960    5.1803   21.1079 H         1 VAL         0.1994
    237 H111       12.4522    7.5423   25.5528 H         1 VAL         0.1883
    238 H112       13.5244    4.9823   24.8577 H         1 VAL         0.0800
    239 H113       15.7684    6.1889   25.2890 H         1 VAL         0.0320
    240 H114       14.7559    7.6498   25.5486 H         1 VAL         0.0320
    241 H115       15.7358    7.3535   23.2494 H         1 VAL         0.0378
    242 H116       13.9622    7.6240   23.3379 H         1 VAL         0.0378
    243 H117       12.4470    4.7252   21.4890 H         1 VAL         0.0340
    244 H118       12.5944    6.5147   21.5388 H         1 VAL         0.0340
    245 H119       12.1322    5.6100   23.0202 H         1 VAL         0.0340
    246 H120       13.2233    6.7465   27.8657 H         1 VAL         0.1883
    247 H121       15.1676    5.2674   29.3378 H         1 VAL         0.0797
    248 H122       13.9832    6.0392   31.3887 H         1 VAL         0.0277
    249 H123       12.6127    6.6105   30.3778 H         1 VAL         0.0277
    250 H124       14.2284    7.3788   30.2175 H         1 VAL         0.0277
    251 H125       11.7758    4.7457   28.6485 H         1 VAL         0.1883
    252 H126       11.6891    2.4130   30.3970 H         1 VAL         0.0800
    253 H127        9.6697    3.5431   30.3577 H         1 VAL         0.0313
    254 H128        9.4173    1.9617   29.5440 H         1 VAL         0.0313
    255 H129        9.5413    3.2248   27.3648 H         1 VAL         0.0301
    256 H130        9.4295    4.7234   28.3490 H         1 VAL         0.0301
    257 H131        7.1854    4.3841   28.0138 H         1 VAL         0.0689
    258 H132        7.3904    3.3364   29.4584 H         1 VAL         0.0689
    259 H133        7.1208    2.4512   26.6141 H         1 VAL         0.2642
    260 H134        6.8075   -0.0728   29.7852 H         1 VAL         0.2615
    261 H135        7.3393    1.6057   30.0729 H         1 VAL         0.2615
    262 H136        6.4623    0.3449   26.2989 H         1 VAL         0.2615
    263 H137        6.3170   -0.7733   27.6814 H         1 VAL         0.2615
    264 H138       12.1525    2.9408   26.9620 H         1 VAL         0.1884
    265 H139       11.8518    0.1621   26.2424 H         1 VAL         0.0793
    266 H140       14.7129    0.9662   26.9708 H         1 VAL         0.1373
    267 H141       13.2031    2.4672   24.7282 H         1 VAL         0.0343
    268 H142       13.1977    0.9959   22.7180 H         1 VAL         0.0235
    269 H143       12.6440   -0.3811   23.7299 H         1 VAL         0.0235
    270 H144       14.2615    0.3474   24.0120 H         1 VAL         0.0235
    271 H145       10.7664    2.6163   25.0720 H         1 VAL         0.0235
    272 H146       10.5675    1.0011   24.3117 H         1 VAL         0.0235
    273 H147       11.1931    2.3787   23.3434 H         1 VAL         0.0235
    274 H148       15.9469    1.0209   29.4932 H         1 SER         0.2011
    275 H149       14.5067    0.2556   29.2705 H         1 SER         0.2011
    276 H150       15.9051   -0.4649   28.7859 H         1 SER         0.2011
    277 H151       16.6872   -0.6983   30.9611 H         1 SER         0.1047
    278 H152       15.9064    1.2508   32.0276 H         1 SER         0.0633
    279 H153       15.1523   -0.1366   32.8839 H         1 SER         0.0633
    280 H154       13.6632    1.5504   32.4218 H         1 SER         0.2098
@<TRIPOS>BOND
     1    1    2 1  
     2    2    3 1  
     3    2    5 1  
     4    3    4 2  
     5    3    8 am 
     6    5    6 1  
     7    5    7 1  
     8    8    9 1  
     9    9   10 1  
    10    9   12 1  
    11   10   11 2  
    12   10   16 am 
    13   12   13 1  
    14   12   14 1  
    15   13   15 1  
    16   16   17 1  
    17   17   18 1  
    18   17   20 1  
    19   18   19 2  
    20   18   27 am 
    21   20   21 1  
    22   21   22 1  
    23   22   23 1  
    24   23   24 ar 
    25   24   25 ar 
    26   24   26 ar 
    27   27   28 1  
    28   28   29 1  
    29   28   31 1  
    30   29   30 2  
    31   29   35 am 
    32   31   32 1  
    33   32   33 2  
    34   32   34 am 
    35   35   36 1  
    36   36   37 1  
    37   36   39 1  
    38   37   38 2  
    39   37   44 am 
    40   39   40 1  
    41   40   41 1  
    42   41   42 1  
    43   42   43 1  
    44   44   45 1  
    45   45   46 1  
    46   45   48 1  
    47   46   47 2  
    48   46   52 am 
    49   48   49 1  
    50   48   50 1  
    51   49   51 1  
    52   52   53 1  
    53   53   54 1  
    54   53   56 1  
    55   54   55 2  
    56   54   63 am 
    57   56   57 1  
    58   57   58 1  
    59   58   59 1  
    60   59   60 ar 
    61   60   61 ar 
    62   60   62 ar 
    63   63   64 1  
    64   64   65 1  
    65   64   67 1  
    66   65   66 2  
    67   65   68 am 
    68   68   69 1  
    69   69   70 1  
    70   69   72 1  
    71   70   71 2  
    72   70   76 am 
    73   72   73 1  
    74   72   74 1  
    75   73   75 1  
    76   76   77 1  
    77   77   78 1  
    78   78   79 2  
    79   78   80 am 
    80   80   81 1  
    81   81   82 1  
    82   81   84 1  
    83   82   83 2  
    84   82   89 am 
    85   84   85 1  
    86   85   86 1  
    87   86   87 1  
    88   87   88 1  
    89   89   90 1  
    90   90   91 1  
    91   90   93 1  
    92   91   92 2  
    93   91   97 am 
    94   93   94 1  
    95   94   95 1  
    96   95   96 1  
    97   97   98 1  
    98   98   99 1  
    99   98  101 1  
   100   99  100 2  
   101   99  102 am 
   102  102  103 1  
   103  103  104 1  
   104  103  106 1  
   105  104  105 2  
   106  104  113 am 
   107  106  107 1  
   108  107  108 1  
   109  108  109 1  
   110  109  110 ar 
   111  110  111 ar 
   112  110  112 ar 
   113  113  114 1  
   114  114  115 1  
   115  114  117 1  
   116  115  116 2  
   117  117  118 1  
   118  117  119 1  
   119  120  121 1  
   120  121  122 1  
   121  121  124 1  
   122  122  123 ar 
   123  122  126 ar 
   124  124  125 1  
   125    1  127 1  
   126    1  128 1  
   127    1  129 1  
   128    2  130 1  
   129    5  131 1  
   130    6  132 1  
   131    6  133 1  
   132    6  134 1  
   133    7  135 1  
   134    7  136 1  
   135    7  137 1  
   136    8  138 1  
   137    9  139 1  
   138   12  140 1  
   139   13  141 1  
   140   13  142 1  
   141   14  143 1  
   142   14  144 1  
   143   14  145 1  
   144   15  146 1  
   145   15  147 1  
   146   15  148 1  
   147   16  149 1  
   148   17  150 1  
   149   20  151 1  
   150   20  152 1  
   151   21  153 1  
   152   21  154 1  
   153   22  155 1  
   154   22  156 1  
   155   23  157 1  
   156   25  158 1  
   157   25  159 1  
   158   26  160 1  
   159   26  161 1  
   160   27  162 1  
   161   28  163 1  
   162   31  164 1  
   163   31  165 1  
   164   34  166 1  
   165   34  167 1  
   166   35  168 1  
   167   36  169 1  
   168   39  170 1  
   169   39  171 1  
   170   40  172 1  
   171   40  173 1  
   172   41  174 1  
   173   41  175 1  
   174   42  176 1  
   175   42  177 1  
   176   43  178 1  
   177   43  179 1  
   178   43  180 1  
   179   44  181 1  
   180   45  182 1  
   181   48  183 1  
   182   49  184 1  
   183   49  185 1  
   184   50  186 1  
   185   50  187 1  
   186   50  188 1  
   187   51  189 1  
   188   51  190 1  
   189   51  191 1  
   190   52  192 1  
   191   53  193 1  
   192   56  194 1  
   193   56  195 1  
   194   57  196 1  
   195   57  197 1  
   196   58  198 1  
   197   58  199 1  
   198   59  200 1  
   199   61  201 1  
   200   61  202 1  
   201   62  203 1  
   202   62  204 1  
   203   63  205 1  
   204   64  206 1  
   205   67  207 1  
   206   67  208 1  
   207   67  209 1  
   208   68  210 1  
   209   69  211 1  
   210   72  212 1  
   211   73  213 1  
   212   73  214 1  
   213   74  215 1  
   214   74  216 1  
   215   74  217 1  
   216   75  218 1  
   217   75  219 1  
   218   75  220 1  
   219   76  221 1  
   220   77  222 1  
   221   77  223 1  
   222   80  224 1  
   223   81  225 1  
   224   84  226 1  
   225   84  227 1  
   226   85  228 1  
   227   85  229 1  
   228   86  230 1  
   229   86  231 1  
   230   87  232 1  
   231   87  233 1  
   232   88  234 1  
   233   88  235 1  
   234   88  236 1  
   235   89  237 1  
   236   90  238 1  
   237   93  239 1  
   238   93  240 1  
   239   94  241 1  
   240   94  242 1  
   241   96  243 1  
   242   96  244 1  
   243   96  245 1  
   244   97  246 1  
   245   98  247 1  
   246  101  248 1  
   247  101  249 1  
   248  101  250 1  
   249  102  251 1  
   250  103  252 1  
   251  106  253 1  
   252  106  254 1  
   253  107  255 1  
   254  107  256 1  
   255  108  257 1  
   256  108  258 1  
   257  109  259 1  
   258  111  260 1  
   259  111  261 1  
   260  112  262 1  
   261  112  263 1  
   262  113  264 1  
   263  114  265 1  
   264  115  266 1  
   265  117  267 1  
   266  118  268 1  
   267  118  269 1  
   268  118  270 1  
   269  119  271 1  
   270  119  272 1  
   271  119  273 1  
   272  120  274 1  
   273  120  275 1  
   274  120  276 1  
   275  121  277 1  
   276  124  278 1  
   277  124  279 1  
   278  125  280 1  
@<TRIPOS>SUBSTRUCTURE
     1 VAL         1

