### 
### Created by X-TOOL on Fri Sep 26 17:34:48 2014
### 

@<TRIPOS>MOLECULE
2wic_ligand
   46    48     1     0     0
SMALL
GAST_HUCK


@<TRIPOS>ATOM
      1 PG         26.8810    9.2710   65.0420 P.3       1 GNP         0.1803
      2 O1G        27.1890    9.3910   63.5410 O.co2     1 GNP        -0.5454
      3 O2G        27.8640    8.2290   65.4990 O.co2     1 GNP        -0.5454
      4 O3G        26.7770   10.7360   65.7860 O.co2     1 GNP        -0.5454
      5 N3B        25.3620    8.6570   65.1780 N.am      1 GNP        -0.1803
      6 PB         25.0810    6.9590   65.3600 P.3       1 GNP         0.2543
      7 O1B        26.0220    6.0530   66.0080 O.co2     1 GNP        -0.6257
      8 O2B        24.3520    6.7760   63.8660 O.co2     1 GNP        -0.6257
      9 O3A        23.6700    6.9760   66.2460 O.3       1 GNP        -0.1431
     10 PA         23.2780    6.4800   67.7580 P.3       1 GNP         0.2949
     11 O1A        23.3910    5.0290   67.9630 O.co2     1 GNP        -0.6129
     12 O2A        24.3170    7.3300   68.5610 O.co2     1 GNP        -0.6129
     13 O5'        21.8580    6.9670   67.8040 O.3       1 GNP        -0.2478
     14 C5'        21.3590    8.3320   67.8000 C.3       1 GNP         0.1128
     15 C4'        20.1590    8.2480   68.6850 C.3       1 GNP         0.1190
     16 O4'        19.0170    7.4680   68.0190 O.3       1 GNP        -0.3347
     17 C3'        20.3220    7.5780   70.0600 C.3       1 GNP         0.1151
     18 O3'        19.6590    8.3010   71.1450 O.3       1 GNP        -0.3864
     19 C2'        19.4920    6.3100   69.9630 C.3       1 GNP         0.1407
     20 O2'        18.8810    6.0970   71.1840 O.3       1 GNP        -0.3835
     21 C1'        18.3590    6.6520   68.8860 C.3       1 GNP         0.2218
     22 N9         18.0420    5.4760   68.0700 N.pl3     1 GNP        -0.0954
     23 C8         18.8830    4.6250   67.4520 C.2       1 GNP         0.1855
     24 N7         18.1600    3.6290   66.8530 N.2       1 GNP        -0.1929
     25 C5         16.8650    3.8630   67.0760 C.2       1 GNP         0.2558
     26 C6         15.6730    3.3700   66.6040 C.2       1 GNP         0.2628
     27 O6         15.4790    2.3120   65.9680 O.2       1 GNP        -0.3594
     28 N1         14.4660    4.0340   67.0550 N.am      1 GNP        -0.2478
     29 C2         14.4870    5.1540   67.8760 C.cat     1 GNP         0.2041
     30 N2         13.2750    5.6190   68.2450 N.pl3     1 GNP        -0.3327
     31 N3         15.6540    5.7350   68.1890 N.pl3     1 GNP        -0.1901
     32 C4         16.8210    5.0820   67.8450 C.2       1 GNP         0.3268
     33 H          24.5649    9.2930   65.1545 H         1 GNP         0.2132
     34 H          21.1238    8.6949   66.7995 H         1 GNP         0.0648
     35 H          22.0958    9.0542   68.1516 H         1 GNP         0.0648
     36 H          19.9613    9.3082   68.8434 H         1 GNP         0.0651
     37 H          21.3880    7.4865   70.2682 H         1 GNP         0.0648
     38 H          19.7981    7.8331   71.9717 H         1 GNP         0.2100
     39 H          20.0829    5.4343   69.6944 H         1 GNP         0.0677
     40 H          18.3170    6.8451   71.3931 H         1 GNP         0.2101
     41 H          17.4591    7.0358   69.3665 H         1 GNP         0.1021
     42 H          19.9691    4.7152   67.4319 H         1 GNP         0.1823
     43 H          13.5637    3.6633   66.7570 H         1 GNP         0.1819
     44 H          12.4288    5.1507   67.9210 H         1 GNP         0.1774
     45 H          13.2052    6.4388   68.8479 H         1 GNP         0.1774
     46 H          15.6791    6.6350   68.6683 H         1 GNP         0.2519
@<TRIPOS>BOND
     1    1    2 ar 
     2    1    3 ar 
     3    1    4 ar 
     4    1    5 am 
     5    5    6 1  
     6    6    7 ar 
     7    6    8 ar 
     8    6    9 1  
     9    9   10 1  
    10   10   11 ar 
    11   10   12 ar 
    12   10   13 1  
    13   13   14 1  
    14   14   15 1  
    15   15   16 1  
    16   15   17 1  
    17   16   21 1  
    18   17   18 1  
    19   17   19 1  
    20   19   20 1  
    21   19   21 1  
    22   21   22 1  
    23   22   23 1  
    24   22   32 1  
    25   23   24 2  
    26   24   25 1  
    27   25   26 1  
    28   25   32 2  
    29   26   27 2  
    30   26   28 am 
    31   28   29 ar 
    32   29   30 ar 
    33   29   31 ar 
    34   31   32 1  
    35    5   33 1  
    36   14   34 1  
    37   14   35 1  
    38   15   36 1  
    39   17   37 1  
    40   18   38 1  
    41   19   39 1  
    42   20   40 1  
    43   21   41 1  
    44   23   42 1  
    45   28   43 1  
    46   30   44 1  
    47   30   45 1  
    48   31   46 1  
@<TRIPOS>SUBSTRUCTURE
     1 GNP         1

