### 
### Created by X-TOOL on Fri Sep 26 17:34:45 2014
### 

@<TRIPOS>MOLECULE
2wik_ligand
   22    21     1     0     0
SMALL
GAST_HUCK


@<TRIPOS>ATOM
      1 C5        -13.8430  -41.0100  -22.3330 C.3       1 TC5        -0.0639
      2 C4        -13.5100  -39.6010  -21.9450 C.3       1 TC5        -0.0419
      3 C3        -14.8460  -38.9410  -21.5000 C.3       1 TC5        -0.0100
      4 N         -14.8070  -37.7050  -22.2170 N.am      1 TC5        -0.4332
      5 P         -16.3240  -36.8760  -22.9060 P.3       1 TC5        -0.1269
      6 O2        -16.2370  -36.5580  -24.3850 O.co2     1 TC5        -0.8757
      7 O3        -17.7870  -37.8370  -22.5790 O.3       1 TC5        -0.4532
      8 C1        -17.7750  -39.2950  -22.5800 C.3       1 TC5         0.0278
      9 C2        -19.1970  -39.8320  -22.1960 C.3       1 TC5        -0.0423
     10 H         -14.2697  -41.5304  -21.4756 H         1 TC5         0.0230
     11 H         -14.5650  -40.9997  -23.1495 H         1 TC5         0.0230
     12 H         -12.9356  -41.5209  -22.6551 H         1 TC5         0.0230
     13 H         -13.0655  -39.0599  -22.7803 H         1 TC5         0.0277
     14 H         -12.7760  -39.5801  -21.1395 H         1 TC5         0.0277
     15 H         -14.9324  -38.8164  -20.4206 H         1 TC5         0.0444
     16 H         -15.7257  -39.5455  -21.7208 H         1 TC5         0.0444
     17 H         -13.9026  -37.2550  -22.3580 H         1 TC5         0.1202
     18 H         -17.0445  -39.6520  -21.8540 H         1 TC5         0.0552
     19 H         -17.5079  -39.6546  -23.5737 H         1 TC5         0.0552
     20 H         -19.4639  -39.4717  -21.2025 H         1 TC5         0.0252
     21 H         -19.9272  -39.4744  -22.9219 H         1 TC5         0.0252
     22 H         -19.1850  -40.9219  -22.1976 H         1 TC5         0.0252
@<TRIPOS>BOND
     1    1    2 1  
     2    2    3 1  
     3    3    4 1  
     4    4    5 am 
     5    5    6 ar 
     6    5    7 1  
     7    7    8 1  
     8    8    9 1  
     9    1   10 1  
    10    1   11 1  
    11    1   12 1  
    12    2   13 1  
    13    2   14 1  
    14    3   15 1  
    15    3   16 1  
    16    4   17 1  
    17    8   18 1  
    18    8   19 1  
    19    9   20 1  
    20    9   21 1  
    21    9   22 1  
@<TRIPOS>SUBSTRUCTURE
     1 TC5         1

