### 
### Created by X-TOOL on Fri Sep 26 17:34:52 2014
### 

@<TRIPOS>MOLECULE
2xlc_ligand
   18    17     1     0     0
SMALL
GAST_HUCK


@<TRIPOS>ATOM
      1 C1        -15.5960   -2.7170   41.3390 C.3       1 DEP         0.0281
      2 C2        -16.3110   -4.0660   41.4390 C.3       1 DEP        -0.0424
      3 C3        -19.6330    0.1610   39.7700 C.3       1 DEP         0.0281
      4 C4        -19.7810    1.6480   39.4340 C.3       1 DEP        -0.0424
      5 O1        -16.3460   -1.7880   40.5440 O.3       1 DEP        -0.4451
      6 O2        -18.2570   -0.1920   40.0020 O.3       1 DEP        -0.4451
      7 O3        -17.9760   -1.1280   42.3580 O.co2     1 DEP        -0.8777
      8 P         -17.8790   -1.4770   40.9180 P.3       1 DEP        -0.0749
      9 H         -14.6254   -2.8725   40.8680 H         1 DEP         0.0550
     10 H         -15.4873   -2.3064   42.3428 H         1 DEP         0.0550
     11 H         -17.2887   -3.9243   41.8997 H         1 DEP         0.0252
     12 H         -16.4357   -4.4846   40.4403 H         1 DEP         0.0252
     13 H         -15.7162   -4.7468   42.0480 H         1 DEP         0.0252
     14 H         -20.0020   -0.4223   38.9264 H         1 DEP         0.0550
     15 H         -20.2007   -0.0466   40.6770 H         1 DEP         0.0550
     16 H         -19.4057    2.2459   40.2645 H         1 DEP         0.0252
     17 H         -19.2093    1.8745   38.5340 H         1 DEP         0.0252
     18 H         -20.8330    1.8781   39.2652 H         1 DEP         0.0252
@<TRIPOS>BOND
     1    1    2 1  
     2    5    1 1  
     3    3    4 1  
     4    6    3 1  
     5    8    5 1  
     6    6    8 1  
     7    8    7 ar 
     8    1    9 1  
     9    1   10 1  
    10    2   11 1  
    11    2   12 1  
    12    2   13 1  
    13    3   14 1  
    14    3   15 1  
    15    4   16 1  
    16    4   17 1  
    17    4   18 1  
@<TRIPOS>SUBSTRUCTURE
     1 DEP         1

