### 
### Created by X-TOOL on Fri Sep 26 17:34:47 2014
### 

@<TRIPOS>MOLECULE
2xtn_ligand
   45    47     1     0     0
SMALL
GAST_HUCK


@<TRIPOS>ATOM
      1 PG          6.9930   21.8690   19.6320 P.3       1 GTP         0.1879
      2 O1G         7.8650   22.2700   20.7960 O.co2     1 GTP        -0.6091
      3 O2G         7.8200   21.5590   18.4240 O.co2     1 GTP        -0.6091
      4 O3G         6.0060   22.9600   19.3050 O.co2     1 GTP        -0.6091
      5 O3B         6.1980   20.5910   20.1850 O.3       1 GTP        -0.1546
      6 PB          5.3220   19.5220   19.3700 P.3       1 GTP         0.3553
      7 O1B         6.0300   19.1310   18.1060 O.co2     1 GTP        -0.5652
      8 O2B         3.8930   19.9600   19.1700 O.co2     1 GTP        -0.5652
      9 O3A         5.3240   18.2640   20.3730 O.3       1 GTP        -0.1171
     10 PA          6.5240   17.2000   20.5410 P.3       1 GTP         0.3266
     11 O1A         7.8610   17.8830   20.6730 O.co2     1 GTP        -0.5692
     12 O2A         6.4960   16.1950   19.4370 O.co2     1 GTP        -0.5692
     13 O5'         6.0840   16.5130   21.9220 O.3       1 GTP        -0.2441
     14 C5'         6.3060   17.1330   23.1780 C.3       1 GTP         0.1131
     15 C4'         6.2320   16.0430   24.2500 C.3       1 GTP         0.1190
     16 O4'         4.8950   15.5680   24.3520 O.3       1 GTP        -0.3347
     17 C3'         7.0940   14.8420   23.8950 C.3       1 GTP         0.1151
     18 O3'         7.7270   14.3690   25.0630 O.3       1 GTP        -0.3864
     19 C2'         6.1110   13.8000   23.4090 C.3       1 GTP         0.1407
     20 O2'         6.5670   12.4910   23.6610 O.3       1 GTP        -0.3835
     21 C1'         4.8630   14.1620   24.2020 C.3       1 GTP         0.2218
     22 N9          3.6360   13.7230   23.5200 N.pl3     1 GTP        -0.0954
     23 C8          3.1620   14.1260   22.2980 C.2       1 GTP         0.1855
     24 N7          2.0050   13.4710   22.0590 N.2       1 GTP        -0.1929
     25 C5          1.7370   12.6530   23.0990 C.2       1 GTP         0.2558
     26 C6          0.6970   11.7680   23.3730 C.2       1 GTP         0.2628
     27 O6         -0.2320   11.5970   22.5740 O.2       1 GTP        -0.3594
     28 N1          0.7160   11.0680   24.5680 N.am      1 GTP        -0.2478
     29 C2          1.7410   11.2410   25.4720 C.cat     1 GTP         0.2041
     30 N2          1.7460   10.5570   26.6160 N.pl3     1 GTP        -0.3327
     31 N3          2.7650   12.1190   25.1950 N.pl3     1 GTP        -0.1901
     32 C4          2.7540   12.8160   24.0320 C.2       1 GTP         0.3268
     33 H           5.5537   17.9000   23.3623 H         1 GTP         0.0648
     34 H           7.2816   17.6188   23.1957 H         1 GTP         0.0648
     35 H           6.5826   16.4878   25.1813 H         1 GTP         0.0651
     36 H           7.8604   15.0758   23.1560 H         1 GTP         0.0648
     37 H           8.2730   13.6102   24.8448 H         1 GTP         0.2100
     38 H           5.9488   13.8026   22.3311 H         1 GTP         0.0677
     39 H           6.6897   12.3724   24.6057 H         1 GTP         0.2101
     40 H           4.8540   13.6583   25.1686 H         1 GTP         0.1021
     41 H           3.6364   14.8492   21.6347 H         1 GTP         0.1823
     42 H          -0.0387   10.4159   24.7815 H         1 GTP         0.1819
     43 H           0.9901    9.9042   26.8232 H         1 GTP         0.1774
     44 H           2.5057   10.6863   27.2842 H         1 GTP         0.1774
     45 H           3.5274   12.2443   25.8609 H         1 GTP         0.2519
@<TRIPOS>BOND
     1    1    2 ar 
     2    1    3 ar 
     3    1    4 ar 
     4    1    5 1  
     5    5    6 1  
     6    6    7 ar 
     7    6    8 ar 
     8    6    9 1  
     9    9   10 1  
    10   10   11 ar 
    11   10   12 ar 
    12   10   13 1  
    13   13   14 1  
    14   14   15 1  
    15   15   16 1  
    16   15   17 1  
    17   16   21 1  
    18   17   18 1  
    19   17   19 1  
    20   19   20 1  
    21   19   21 1  
    22   21   22 1  
    23   22   23 1  
    24   22   32 1  
    25   23   24 2  
    26   24   25 1  
    27   25   26 1  
    28   25   32 2  
    29   26   27 2  
    30   26   28 am 
    31   28   29 ar 
    32   29   30 ar 
    33   29   31 ar 
    34   31   32 1  
    35   14   33 1  
    36   14   34 1  
    37   15   35 1  
    38   17   36 1  
    39   18   37 1  
    40   19   38 1  
    41   20   39 1  
    42   21   40 1  
    43   23   41 1  
    44   28   42 1  
    45   30   43 1  
    46   30   44 1  
    47   31   45 1  
@<TRIPOS>SUBSTRUCTURE
     1 GTP         1

