### 
### Created by X-TOOL on Fri Sep 26 17:34:52 2014
### 

@<TRIPOS>MOLECULE
2y4k_ligand
   41    43     1     0     0
SMALL
GAST_HUCK


@<TRIPOS>ATOM
      1 PB         38.7830  -45.1400   -5.0610 P.3       1 GDP         0.2069
      2 O1B        40.0050  -45.0260   -5.9600 O.co2     1 GDP        -0.5891
      3 O2B        37.5030  -45.1440   -5.9110 O.co2     1 GDP        -0.5891
      4 O3B        38.8910  -46.4030   -4.2060 O.co2     1 GDP        -0.5891
      5 O3A        38.8380  -43.8540   -4.0610 O.3       1 GDP        -0.1548
      6 PA         38.2470  -42.3980   -4.3810 P.3       1 GDP         0.3276
      7 O1A        39.3730  -41.3870   -4.3950 O.co2     1 GDP        -0.5556
      8 O2A        37.4240  -42.3570   -5.6590 O.co2     1 GDP        -0.5556
      9 O5'        37.3060  -42.3080   -3.0960 O.3       1 GDP        -0.2436
     10 C5'        36.3430  -43.3150   -2.7800 C.3       1 GDP         0.1132
     11 C4'        35.0690  -42.6220   -2.2820 C.3       1 GDP         0.1190
     12 O4'        35.1740  -42.1100   -0.9360 O.3       1 GDP        -0.3347
     13 C3'        34.7020  -41.4180   -3.1230 C.3       1 GDP         0.1151
     14 O3'        33.2760  -41.3420   -3.1140 O.3       1 GDP        -0.3864
     15 C2'        35.3250  -40.2590   -2.3480 C.3       1 GDP         0.1407
     16 O2'        34.6680  -39.0310   -2.5850 O.3       1 GDP        -0.3835
     17 C1'        35.1380  -40.6780   -0.9100 C.3       1 GDP         0.2218
     18 N9         36.2020  -40.2260    0.0050 N.pl3     1 GDP        -0.0954
     19 C8         37.5430  -40.4200   -0.1190 C.2       1 GDP         0.1855
     20 N7         38.2130  -39.9060    0.9530 N.2       1 GDP        -0.1929
     21 C5         37.2860  -39.3860    1.7830 C.2       1 GDP         0.2558
     22 C6         37.2950  -38.6690    3.0830 C.2       1 GDP         0.2628
     23 O6         38.3640  -38.4450    3.6770 O.2       1 GDP        -0.3594
     24 N1         36.1190  -38.3050    3.6070 N.am      1 GDP        -0.2478
     25 C2         34.9350  -38.5370    2.9840 C.cat     1 GDP         0.2041
     26 N2         33.7820  -38.1200    3.5810 N.pl3     1 GDP        -0.3327
     27 N3         34.8530  -39.1770    1.7870 N.pl3     1 GDP        -0.1901
     28 C4         35.9660  -39.6010    1.1550 C.2       1 GDP         0.3268
     29 H          36.7343  -43.9781   -2.0085 H         1 GDP         0.0648
     30 H          36.1226  -43.9127   -3.6644 H         1 GDP         0.0648
     31 H          34.3205  -43.4122   -2.3407 H         1 GDP         0.0651
     32 H          35.0394  -41.4343   -4.1593 H         1 GDP         0.0648
     33 H          32.9935  -40.5887   -3.6378 H         1 GDP         0.2100
     34 H          36.3616  -40.0850   -2.6365 H         1 GDP         0.0677
     35 H          33.7488  -39.1044   -2.3179 H         1 GDP         0.2101
     36 H          34.2132  -40.2369   -0.5381 H         1 GDP         0.1021
     37 H          38.0190  -40.9197   -0.9627 H         1 GDP         0.1823
     38 H          36.1115  -37.8339    4.5116 H         1 GDP         0.1819
     39 H          33.8178  -37.6421    4.4814 H         1 GDP         0.1774
     40 H          32.8838  -38.2860    3.1271 H         1 GDP         0.1774
     41 H          33.9396  -39.3381    1.3626 H         1 GDP         0.2519
@<TRIPOS>BOND
     1    1    2 ar 
     2    1    3 ar 
     3    1    4 ar 
     4    1    5 1  
     5    5    6 1  
     6    6    7 ar 
     7    6    8 ar 
     8    6    9 1  
     9    9   10 1  
    10   10   11 1  
    11   11   12 1  
    12   11   13 1  
    13   12   17 1  
    14   13   14 1  
    15   13   15 1  
    16   15   16 1  
    17   15   17 1  
    18   17   18 1  
    19   18   19 1  
    20   18   28 1  
    21   19   20 2  
    22   20   21 1  
    23   21   22 1  
    24   21   28 2  
    25   22   23 2  
    26   22   24 am 
    27   24   25 ar 
    28   25   26 ar 
    29   25   27 ar 
    30   27   28 1  
    31   10   29 1  
    32   10   30 1  
    33   11   31 1  
    34   13   32 1  
    35   14   33 1  
    36   15   34 1  
    37   16   35 1  
    38   17   36 1  
    39   19   37 1  
    40   24   38 1  
    41   26   39 1  
    42   26   40 1  
    43   27   41 1  
@<TRIPOS>SUBSTRUCTURE
     1 GDP         1

