### 
### Created by X-TOOL on Fri Sep 26 17:34:42 2014
### 

@<TRIPOS>MOLECULE
2zit_ligand
   70    74     1     0     0
SMALL
GAST_HUCK


@<TRIPOS>ATOM
      1 PA          3.3390   -5.0010   93.9860 P.3       1 NAD         0.2972
      2 O1A         1.9380   -4.6130   94.3580 O.co2     1 NAD        -0.6127
      3 O2A         4.2470   -5.5340   95.0530 O.co2     1 NAD        -0.6127
      4 O5B         3.9980   -3.7030   93.3140 O.3       1 NAD        -0.2476
      5 C5B         3.1540   -2.9760   92.4230 C.3       1 NAD         0.1128
      6 C4B         3.7610   -2.7090   91.0480 C.3       1 NAD         0.1189
      7 O4B         4.1390   -1.3410   90.8760 O.3       1 NAD        -0.3364
      8 C3B         4.9760   -3.5590   90.6910 C.3       1 NAD         0.1149
      9 O3B         4.5960   -4.7090   89.9230 O.3       1 NAD        -0.3864
     10 C2B         5.8660   -2.6080   89.9020 C.3       1 NAD         0.1385
     11 O2B         6.1400   -3.1260   88.5980 O.3       1 NAD        -0.3836
     12 C1B         5.0550   -1.3240   89.7830 C.3       1 NAD         0.2010
     13 N9A         5.9060   -0.1040   89.7250 N.pl3     1 NAD        -0.1919
     14 C8A         5.8230    0.8570   88.7920 C.2       1 NAD         0.1123
     15 N7A         6.7350    1.8140   89.0650 N.2       1 NAD        -0.2958
     16 C5A         7.3900    1.4500   90.1830 C.ar      1 NAD         0.1045
     17 C6A         8.4160    2.0380   90.9140 C.ar      1 NAD         0.1298
     18 N6A         8.9540    3.2250   90.5300 N.pl3     1 NAD        -0.3152
     19 N1A         8.8690    1.4120   92.0220 N.ar      1 NAD        -0.2698
     20 C2A         8.3430    0.2430   92.4120 C.ar      1 NAD         0.0533
     21 N3A         7.3520   -0.3440   91.7230 N.ar      1 NAD        -0.2714
     22 C4A         6.8520    0.2440   90.6050 C.ar      1 NAD         0.1613
     23 O3          3.2910   -6.0510   92.7660 O.3       1 NAD        -0.1319
     24 PN          4.5090   -7.0560   92.4440 P.3       1 NAD         0.2972
     25 O1N         5.7100   -6.7050   93.2750 O.co2     1 NAD        -0.6127
     26 O2N         4.6540   -7.1560   90.9500 O.co2     1 NAD        -0.6127
     27 O5D         3.8900   -8.4280   92.9930 O.3       1 NAD        -0.2476
     28 C5D         3.8390   -8.6330   94.4010 C.3       1 NAD         0.1127
     29 C4D         3.6650  -10.1050   94.7530 C.3       1 NAD         0.1175
     30 O4D         4.2290  -10.9170   93.7250 O.3       1 NAD        -0.3489
     31 C3D         4.4250  -10.4010   96.0340 C.3       1 NAD         0.1134
     32 O3D         3.5310  -10.5980   97.1320 O.3       1 NAD        -0.3864
     33 C2D         5.2300  -11.6530   95.7540 C.3       1 NAD         0.1245
     34 O2D         4.7180  -12.7580   96.5120 O.3       1 NAD        -0.3851
     35 C1D         5.0820  -11.9250   94.2670 C.3       1 NAD         0.1576
     36 N1N         6.3890  -11.8340   93.6060 N.ar      1 NAD        -0.2936
     37 C2N         6.5620  -10.9640   92.6030 C.ar      1 NAD         0.0671
     38 C3N         7.7820  -10.8610   91.9430 C.ar      1 NAD         0.1587
     39 C7N         7.9350   -9.8710   90.8240 C.2       1 NAD         0.3690
     40 O7N         8.8960   -9.9470   90.0760 O.2       1 NAD        -0.2307
     41 N7N         6.9960   -8.9430   90.6640 N.am      1 NAD        -0.2274
     42 C4N         8.8340  -11.6850   92.3220 C.ar      1 NAD         0.0203
     43 C5N         8.6330  -12.5850   93.3570 C.ar      1 NAD         0.0100
     44 C6N         7.3890  -12.6440   93.9780 C.ar      1 NAD         0.0432
     45 H           2.9678   -2.0052   92.8824 H         1 NAD         0.0648
     46 H           2.2619   -3.5819   92.2646 H         1 NAD         0.0648
     47 H           2.9470   -2.9847   90.3776 H         1 NAD         0.0651
     48 H           5.4851   -3.9644   91.5654 H         1 NAD         0.0648
     49 H           3.9851   -5.2456   90.4333 H         1 NAD         0.2100
     50 H           6.8277   -2.4584   90.3928 H         1 NAD         0.0676
     51 H           5.3148   -3.2430   88.1215 H         1 NAD         0.2101
     52 H           4.5133   -1.2826   88.8380 H         1 NAD         0.0996
     53 H           5.1310    0.8637   87.9499 H         1 NAD         0.1349
     54 H           8.6055    3.6967   89.6954 H         1 NAD         0.1820
     55 H           9.7064    3.6445   91.0763 H         1 NAD         0.1820
     56 H           8.7285   -0.2420   93.3088 H         1 NAD         0.0996
     57 H           2.9850   -8.0831   94.7964 H         1 NAD         0.0648
     58 H           4.7785   -8.2867   94.8317 H         1 NAD         0.0648
     59 H           2.6020  -10.3176   94.8670 H         1 NAD         0.0650
     60 H           5.0686   -9.5677   96.3159 H         1 NAD         0.0647
     61 H           2.9505  -11.3385   96.9417 H         1 NAD         0.2100
     62 H           6.2749  -11.5229   96.0356 H         1 NAD         0.0660
     63 H           4.7719  -12.5544   97.4486 H         1 NAD         0.2101
     64 H           4.6709  -12.9223   94.1103 H         1 NAD         0.0811
     65 H           5.7326  -10.3256   92.2985 H         1 NAD         0.1162
     66 H           7.0682   -8.2707   89.9003 H         1 NAD         0.2875
     67 H           6.2035   -8.9035   91.3050 H         1 NAD         0.2875
     68 H           9.7976  -11.6252   91.8161 H         1 NAD         0.0911
     69 H           9.4415  -13.2401   93.6813 H         1 NAD         0.0924
     70 H           7.2254  -13.3622   94.7815 H         1 NAD         0.1187
@<TRIPOS>BOND
     1    1    2 ar 
     2    1    3 ar 
     3    1    4 1  
     4    1   23 1  
     5    4    5 1  
     6    5    6 1  
     7    6    7 1  
     8    6    8 1  
     9    7   12 1  
    10    8    9 1  
    11    8   10 1  
    12   10   11 1  
    13   10   12 1  
    14   12   13 1  
    15   13   14 1  
    16   13   22 1  
    17   14   15 2  
    18   15   16 1  
    19   16   17 ar 
    20   16   22 ar 
    21   17   18 1  
    22   17   19 ar 
    23   19   20 ar 
    24   20   21 ar 
    25   21   22 ar 
    26   23   24 1  
    27   24   25 ar 
    28   24   26 ar 
    29   24   27 1  
    30   27   28 1  
    31   28   29 1  
    32   29   30 1  
    33   29   31 1  
    34   30   35 1  
    35   31   32 1  
    36   31   33 1  
    37   33   34 1  
    38   33   35 1  
    39   35   36 1  
    40   36   37 ar 
    41   36   44 ar 
    42   37   38 ar 
    43   38   39 1  
    44   38   42 ar 
    45   39   40 2  
    46   39   41 am 
    47   42   43 ar 
    48   43   44 ar 
    49    5   45 1  
    50    5   46 1  
    51    6   47 1  
    52    8   48 1  
    53    9   49 1  
    54   10   50 1  
    55   11   51 1  
    56   12   52 1  
    57   14   53 1  
    58   18   54 1  
    59   18   55 1  
    60   20   56 1  
    61   28   57 1  
    62   28   58 1  
    63   29   59 1  
    64   31   60 1  
    65   32   61 1  
    66   33   62 1  
    67   34   63 1  
    68   35   64 1  
    69   37   65 1  
    70   41   66 1  
    71   41   67 1  
    72   42   68 1  
    73   43   69 1  
    74   44   70 1  
@<TRIPOS>SUBSTRUCTURE
     1 NAD         1

