### 
### Created by X-TOOL on Fri Sep 26 17:34:41 2014
### 

@<TRIPOS>MOLECULE
3cpj_ligand
   41    43     1     0     0
SMALL
GAST_HUCK


@<TRIPOS>ATOM
      1 PB        -17.8080   39.4730   17.1230 P.3       1 GDP         0.2069
      2 O1B       -16.4780   40.0850   16.7450 O.co2     1 GDP        -0.5891
      3 O2B       -18.2270   38.5030   16.0320 O.co2     1 GDP        -0.5891
      4 O3B       -17.6570   38.7640   18.4510 O.co2     1 GDP        -0.5891
      5 O3A       -18.9250   40.6380   17.2650 O.3       1 GDP        -0.1548
      6 PA        -19.0210   41.6630   18.5090 P.3       1 GDP         0.3276
      7 O1A       -20.0610   41.1990   19.5010 O.co2     1 GDP        -0.5556
      8 O2A       -17.6860   41.8550   19.1910 O.co2     1 GDP        -0.5556
      9 O5'       -19.5190   43.0260   17.8100 O.3       1 GDP        -0.2436
     10 C5'       -18.6600   44.1550   17.6290 C.3       1 GDP         0.1132
     11 C4'       -19.4860   45.4390   17.5500 C.3       1 GDP         0.1190
     12 O4'       -20.6670   45.2320   16.7610 O.3       1 GDP        -0.3347
     13 C3'       -19.9320   45.9020   18.9330 C.3       1 GDP         0.1151
     14 O3'       -19.5450   47.2650   19.1500 O.3       1 GDP        -0.3864
     15 C2'       -21.4430   45.7560   18.9300 C.3       1 GDP         0.1407
     16 O2'       -22.1020   46.8340   19.6110 O.3       1 GDP        -0.3835
     17 C1'       -21.8170   45.7210   17.4550 C.3       1 GDP         0.2218
     18 N9        -23.0060   44.8530   17.2520 N.pl3     1 GDP        -0.0954
     19 C8        -23.0650   43.5210   17.4480 C.2       1 GDP         0.1855
     20 N7        -24.3050   43.0400   17.1780 N.2       1 GDP        -0.1929
     21 C5        -25.0730   44.0790   16.8010 C.2       1 GDP         0.2558
     22 C6        -26.4870   44.2730   16.3750 C.2       1 GDP         0.2628
     23 O6        -27.2860   43.3120   16.3020 O.2       1 GDP        -0.3594
     24 N1        -26.8810   45.5180   16.0610 N.am      1 GDP        -0.2478
     25 C2        -26.0490   46.5840   16.1240 C.cat     1 GDP         0.2041
     26 N2        -26.5370   47.8070   15.7920 N.pl3     1 GDP        -0.3327
     27 N3        -24.7420   46.4790   16.5070 N.pl3     1 GDP        -0.1901
     28 C4        -24.2100   45.2760   16.8510 C.2       1 GDP         0.3268
     29 H1        -18.0896   44.0319   16.6965 H         1 GDP         0.0648
     30 H2        -17.9642   44.2222   18.4783 H         1 GDP         0.0648
     31 H3        -18.8705   46.2242   17.0867 H         1 GDP         0.0651
     32 H4        -19.4875   45.2681   19.7144 H         1 GDP         0.0648
     33 H5        -19.8287   47.5399   20.0140 H         1 GDP         0.2100
     34 H6        -21.7281   44.8107   19.4149 H         1 GDP         0.0677
     35 H7        -21.8865   47.6552   19.1847 H         1 GDP         0.2101
     36 H8        -22.0548   46.7358   17.1035 H         1 GDP         0.1021
     37 H9        -22.2268   42.9101   17.7798 H         1 GDP         0.1823
     38 H10       -27.8264   45.6633   15.7691 H         1 GDP         0.1819
     39 H11       -25.9244   48.6341   15.8317 H         1 GDP         0.1774
     40 H12       -27.5198   47.9076   15.5005 H         1 GDP         0.1774
     41 H13       -24.1516   47.3225   16.5356 H         1 GDP         0.2519
@<TRIPOS>BOND
     1    1    2 ar 
     2    1    3 ar 
     3    1    4 ar 
     4    1    5 1  
     5    5    6 1  
     6    6    7 ar 
     7    6    8 ar 
     8    6    9 1  
     9    9   10 1  
    10   10   11 1  
    11   11   12 1  
    12   11   13 1  
    13   12   17 1  
    14   13   14 1  
    15   13   15 1  
    16   15   16 1  
    17   15   17 1  
    18   17   18 1  
    19   18   19 1  
    20   18   28 1  
    21   19   20 2  
    22   20   21 1  
    23   21   22 1  
    24   21   28 2  
    25   22   23 2  
    26   22   24 am 
    27   24   25 ar 
    28   25   26 ar 
    29   25   27 ar 
    30   27   28 1  
    31   10   29 1  
    32   10   30 1  
    33   11   31 1  
    34   13   32 1  
    35   14   33 1  
    36   15   34 1  
    37   16   35 1  
    38   17   36 1  
    39   19   37 1  
    40   24   38 1  
    41   26   39 1  
    42   26   40 1  
    43   27   41 1  
@<TRIPOS>SUBSTRUCTURE
     1 GDP         1

