### 
### Created by X-TOOL on Fri Sep 26 17:34:42 2014
### 

@<TRIPOS>MOLECULE
3cst_ligand
   69    78     1     0     0
SMALL
GAST_HUCK


@<TRIPOS>ATOM
      1 C1         51.5100   15.8340   28.9800 C.ar      1 E52         0.0749
      2 C2         51.9870   16.9940   29.7810 C.ar      1 E52        -0.0417
      3 C3         51.1800   17.6720   30.7470 C.ar      1 E52        -0.0446
      4 C4         49.9100   17.1560   30.9530 C.ar      1 E52         0.0609
      5 C5         49.3970   16.0620   30.1590 C.ar      1 E52        -0.0084
      6 C6         50.1920   15.3250   29.1580 C.ar      1 E52        -0.0399
      7 C7         45.0130   12.1200   28.7510 C.3       1 E52         0.0448
      8 C8         47.8580   16.6760   31.5240 C.ar      1 E52         0.0982
      9 C9         48.0650   15.7310   30.5160 C.ar      1 E52         0.0209
     10 C10        46.7260   16.8530   32.2180 C.ar      1 E52         0.0794
     11 C11        45.5850   15.8990   31.9220 C.ar      1 E52         0.0175
     12 C12        45.7520   14.9080   30.9310 C.ar      1 E52         0.0708
     13 C13        46.9240   14.8170   30.2590 C.ar      1 E52         0.0685
     14 C14        46.8490   13.6600   29.2510 C.2       1 E52         0.2391
     15 C15        45.5690   18.0590   33.8550 C.ar      1 E52         0.0448
     16 C16        44.4260   17.1650   33.6180 C.ar      1 E52         0.1606
     17 C17        44.4270   16.1160   32.7000 C.ar      1 E52        -0.0037
     18 C18        44.8230   13.8720   30.4090 C.2       1 E52         0.2308
     19 F          43.4160   17.3420   34.2620 F         1 E52        -0.1752
     20 N20        46.6760   17.9010   33.1880 N.ar      1 E52        -0.2925
     21 N21        48.8840   17.5450   31.7450 N.pl3     1 E52        -0.2710
     22 N22        45.5990   13.2390   29.4840 N.am      1 E52        -0.1896
     23 O23        52.3260   15.2240   28.0070 O.3       1 E52        -0.3406
     24 O24        43.7060   13.6280   30.7000 O.2       1 E52        -0.3729
     25 O25        47.5390   13.1400   28.4420 O.2       1 E52        -0.3647
     26 C27        48.1560   20.2720   31.8820 C.2       1 E52         0.0939
     27 O28        47.8180   21.1220   31.1800 O.2       1 E52        -0.3565
     28 C29        49.4140   20.1790   34.3980 C.2       1 E52        -0.0494
     29 C30        48.2580   19.8120   35.0210 C.2       1 E52         0.0232
     30 C31        48.2470   18.3720   35.1830 C.2       1 E52        -0.0728
     31 C32        49.4700   17.8650   34.6210 C.2       1 E52        -0.0719
     32 C33        50.1900   18.9190   34.1420 C.3       1 E52         0.0045
     33 C34        47.1750   20.7120   35.4750 C.2       1 E52         0.1882
     34 C35        46.5740   23.1620   35.6260 C.3       1 E52         0.0952
     35 C36        47.1880   23.7910   36.8910 C.3       1 E52        -0.0349
     36 C37        45.1010   22.8240   35.8980 C.3       1 E52         0.0718
     37 C38        46.6540   24.1550   34.4570 C.3       1 E52         0.0718
     38 N39        47.4320   22.0310   35.2340 N.am      1 E52        -0.2790
     39 O40        46.1600   20.2990   36.0050 O.2       1 E52        -0.3939
     40 O41        44.5890   22.0010   34.8700 O.3       1 E52        -0.3924
     41 O42        48.0080   24.3460   34.0920 O.3       1 E52        -0.3924
     42 RU         48.3850   18.8710   33.2100 Ru        1 E52         7.0000
     43 H1         53.0009   17.3437   29.6236 H         1 E52         0.0515
     44 H2         51.5406   18.5398   31.2873 H         1 E52         0.0529
     45 H3         49.8077   14.4735   28.6081 H         1 E52         0.0485
     46 H4         45.7542   11.7149   28.0463 H         1 E52         0.0533
     47 H5         44.1302   12.4681   28.1947 H         1 E52         0.0533
     48 H6         44.7133   11.3341   29.4598 H         1 E52         0.0533
     49 H7         45.4897   18.8533   34.5884 H         1 E52         0.0843
     50 H8         43.5566   15.4800   32.5858 H         1 E52         0.0718
     51 H9         48.8795   18.3462   32.3923 H         1 E52         0.2202
     52 H10        53.1728   15.6543   27.9889 H         1 E52         0.2444
     53 H11        48.5946   20.5077   32.8505 H         1 E52         0.1313
     54 H12        48.0367   19.2336   31.5765 H         1 E52         0.1313
     55 H13        49.7166   21.1918   34.1362 H         1 E52         0.0708
     56 H14        47.4573   17.7818   35.6456 H         1 E52         0.0416
     57 H15        49.7695   16.8186   34.5844 H         1 E52         0.0588
     58 H16        51.1610   18.9698   34.6563 H         1 E52         0.0734
     59 H17        50.3535   18.7965   33.0611 H         1 E52         0.0734
     60 H18        46.5708   24.6424   37.2137 H         1 E52         0.0256
     61 H19        48.2072   24.1402   36.6692 H         1 E52         0.0256
     62 H20        47.2244   23.0396   37.6935 H         1 E52         0.0256
     63 H21        44.5171   23.7552   35.9420 H         1 E52         0.0583
     64 H22        45.0215   22.2955   36.8594 H         1 E52         0.0583
     65 H23        46.2175   25.1173   34.7627 H         1 E52         0.0583
     66 H24        46.0955   23.7555   33.5977 H         1 E52         0.0583
     67 H25        48.2784   22.2486   34.7479 H         1 E52         0.1847
     68 H26        43.6782   21.7994   35.0499 H         1 E52         0.2095
     69 H27        48.0574   24.9602   33.3689 H         1 E52         0.2095
@<TRIPOS>BOND
     1    2    1 ar 
     2    6    1 ar 
     3    1   23 1  
     4    3    2 ar 
     5    4    3 ar 
     6    4    5 ar 
     7   21    4 1  
     8    5    6 ar 
     9    9    5 1  
    10   22    7 1  
    11    8    9 ar 
    12    8   10 ar 
    13   21    8 1  
    14    9   13 ar 
    15   10   11 ar 
    16   20   10 ar 
    17   11   12 ar 
    18   11   17 ar 
    19   13   12 ar 
    20   12   18 1  
    21   13   14 1  
    22   14   22 am 
    23   14   25 2  
    24   15   16 ar 
    25   20   15 ar 
    26   16   17 ar 
    27   16   19 1  
    28   18   22 am 
    29   18   24 2  
    30   26   27 2  
    31   28   29 2  
    32   28   32 1  
    33   29   30 1  
    34   29   33 1  
    35   31   30 2  
    36   32   31 1  
    37   33   38 am 
    38   33   39 2  
    39   34   35 1  
    40   34   36 1  
    41   34   37 1  
    42   38   34 1  
    43   36   40 1  
    44   37   41 1  
    45   42   20 1  
    46   42   21 1  
    47   42   26 1  
    48   42   28 1  
    49   42   30 1  
    50   42   31 1  
    51   42   32 1  
    52    2   43 1  
    53    3   44 1  
    54    6   45 1  
    55    7   46 1  
    56    7   47 1  
    57    7   48 1  
    58   15   49 1  
    59   17   50 1  
    60   21   51 1  
    61   23   52 1  
    62   26   53 1  
    63   26   54 1  
    64   28   55 1  
    65   30   56 1  
    66   31   57 1  
    67   32   58 1  
    68   32   59 1  
    69   35   60 1  
    70   35   61 1  
    71   35   62 1  
    72   36   63 1  
    73   36   64 1  
    74   37   65 1  
    75   37   66 1  
    76   38   67 1  
    77   40   68 1  
    78   41   69 1  
@<TRIPOS>SUBSTRUCTURE
     1 E52         1

