### 
### Created by X-TOOL on Fri Sep 26 17:34:43 2014
### 

@<TRIPOS>MOLECULE
3d4f_ligand
  159   163     1     0     0
SMALL
GAST_HUCK


@<TRIPOS>ATOM
      1 C1         60.3880   53.1830    2.2040 C.3       1 MA4         0.1884
      2 C2         60.9790   52.4870    0.9560 C.3       1 MA4         0.1341
      3 C3         60.6340   51.0100    0.9410 C.3       1 MA4         0.1141
      4 C4         61.0580   50.3380    2.2380 C.3       1 MA4         0.1119
      5 C5         60.4510   51.1150    3.4390 C.3       1 MA4         0.1130
      6 C6         60.9090   50.5150    4.7400 C.3       1 MA4         0.0730
      7 O2         60.4560   53.1640   -0.2140 O.3       1 MA4        -0.3841
      8 O3         61.2900   50.4350   -0.2230 O.3       1 MA4        -0.3864
      9 O5         60.8390   52.4860    3.4060 O.3       1 MA4        -0.3405
     10 O6         62.3350   50.6230    4.9050 O.3       1 MA4        -0.3924
     11 O1         58.9660   53.1250    2.0970 O.3       1 MA4        -0.3401
     12 O4         60.5960   48.9900    2.2700 O.3       1 MA4        -0.3865
     13 C10        55.5790   55.4350    2.5200 C.3       1 MA4         0.1879
     14 C20        56.4030   55.7280    1.2600 C.3       1 MA4         0.1341
     15 C30        57.2850   54.4870    1.0580 C.3       1 MA4         0.1144
     16 C40        58.1440   54.3150    2.2870 C.3       1 MA4         0.1184
     17 C50        57.3150   54.1190    3.5180 C.3       1 MA4         0.1134
     18 C60        58.1220   54.0030    4.8200 C.3       1 MA4         0.0730
     19 O10        54.7460   56.5350    2.7850 O.3       1 MA4        -0.3487
     20 O20        55.5720   55.9250    0.1440 O.3       1 MA4        -0.3841
     21 O30        58.1050   54.6960   -0.0800 O.3       1 MA4        -0.3864
     22 O50        56.4430   55.2340    3.6700 O.3       1 MA4        -0.3405
     23 O60        59.0260   55.1520    4.9000 O.3       1 MA4        -0.3924
     24 C11        53.6970   56.2180    3.7350 C.3       1 MA4         0.0508
     25 C21        52.4830   55.8620    2.9430 C.3       1 MA4        -0.0294
     26 C31        51.4220   55.5410    3.9790 C.3       1 MA4        -0.0510
     27 C41        50.1020   56.0850    3.4810 C.3       1 MA4        -0.0530
     28 C51        48.9450   55.8620    4.4140 C.3       1 MA4        -0.0528
     29 C61        49.0810   55.6160    5.8780 C.3       1 MA4        -0.0502
     30 C12        47.7690   55.4280    6.6190 C.3       1 MA4        -0.0410
     31 C22        47.9460   55.7890    8.1030 C.3       1 MA4        -0.0502
     32 C32        48.4450   54.6420    9.0210 C.3       1 MA4        -0.0528
     33 C42        47.8210   53.2840    8.7750 C.3       1 MA4        -0.0530
     34 C52        47.7730   52.9330    7.2970 C.3       1 MA4        -0.0528
     35 C62        47.2480   54.0250    6.3810 C.3       1 MA4        -0.0502
     36 C41        49.6320   59.9400    0.5570 C.3       1 MA4        -0.0486
     37 C51        48.4800   60.3000    1.4450 C.2       1 MA4        -0.1015
     38 C61        47.6490   59.2800    2.1410 C.2       1 MA4        -0.0958
     39 C12        46.5280   59.8440    3.0020 C.3       1 MA4        -0.0245
     40 C22        46.6470   59.3200    4.4420 C.3       1 MA4        -0.0436
     41 C32        45.3140   59.1260    5.2160 C.3       1 MA4        -0.0513
     42 C42        44.1150   59.9140    4.7150 C.3       1 MA4        -0.0528
     43 C52        43.9480   59.8590    3.1920 C.3       1 MA4        -0.0513
     44 C62        45.2020   59.5490    2.3640 C.3       1 MA4        -0.0436
     45 O8         34.4240   59.9260    3.8910 O.2       1 LN1        -0.3862
     46 C7         34.1880   60.9080    4.6010 C.2       1 LN1         0.0909
     47 C6         34.4240   62.3760    4.2470 C.2       1 LN1         0.0214
     48 C9         34.0040   63.3770    5.0240 C.2       1 LN1        -0.0781
     49 CG         34.1730   64.5290    4.3750 C.2       1 LN1         0.0596
     50 CD1        33.9080   65.8500    4.7300 C.2       1 LN1        -0.0484
     51 CE1        34.1820   66.8670    3.8160 C.2       1 LN1        -0.0764
     52 CZ         34.7060   66.5490    2.5660 C.2       1 LN1        -0.0415
     53 CE2        34.9710   65.2310    2.2040 C.2       1 LN1         0.0677
     54 ND2        34.7120   64.2040    3.1240 N.pl3     1 LN1        -0.2067
     55 C5         34.9080   62.8220    3.0180 C.2       1 LN1         0.1668
     56 N4         35.3090   61.9670    2.0750 N.pl3     1 LN1        -0.2854
     57 C3         36.6560   62.1020    1.5050 C.3       1 LN1         0.1119
     58 C3A        37.7180   61.8140    2.5690 C.2       1 LN1         0.0615
     59 O3A        37.5070   60.8790    3.3660 O.co2     1 LN1        -0.5666
     60 O3B        38.7430   62.5290    2.5510 O.co2     1 LN1        -0.5666
     61 C2         36.8010   61.1750    0.2950 C.3       1 LN1         0.0951
     62 S1         35.3660   61.4260   -0.8120 S.o2      1 LN1        -0.2588
     63 O12        35.6360   60.8110   -2.0800 O.co2     1 LN1        -0.5003
     64 O13        35.3040   62.9140   -0.9980 O.co2     1 LN1        -0.5003
     65 CG2        36.8410   59.7000    0.7080 C.3       1 LN1        -0.0381
     66 CG1        38.0670   61.5610   -0.4520 C.3       1 LN1         0.1008
     67 OAV        39.1970   61.3510    0.4060 O.3       1 LN1        -0.2733
     68 CAX        40.3320   61.5360   -0.3150 C.2       1 LN1         0.2435
     69 OAD        40.5070   62.5820   -0.9390 O.2       1 LN1        -0.3677
     70 CAS        41.3860   60.4280   -0.3170 C.3       1 LN1         0.0745
     71 CAY        42.6520   60.9910   -0.9580 C.ar      1 LN1        -0.0425
     72 CAQ        42.6960   61.1850   -2.3330 C.ar      1 LN1        -0.0376
     73 CAM        43.7320   61.3560   -0.1630 C.ar      1 LN1        -0.0776
     74 CAN        44.8610   61.9200   -0.7460 C.ar      1 LN1        -0.0477
     75 CAZ        44.9090   62.1170   -2.1220 C.ar      1 LN1         0.1092
     76 OAH        46.0460   62.6200   -2.6750 O.3       1 LN1        -0.3412
     77 CBA        43.8250   61.7490   -2.9160 C.ar      1 LN1         0.1102
     78 OAI        43.8500   61.9090   -4.2670 O.3       1 LN1        -0.3384
     79 H1         60.7170   54.2319    2.2427 H         1 MA4         0.0938
     80 H2         62.0742   52.5881    0.9707 H         1 MA4         0.0671
     81 H3         59.5457   50.8921    0.8331 H         1 MA4         0.0648
     82 H4         62.1555   50.3480    2.3108 H         1 MA4         0.0647
     83 H5         59.3544   51.0519    3.3804 H         1 MA4         0.0647
     84 H6         60.6276   49.4518    4.7606 H         1 MA4         0.0584
     85 H7         60.4137   51.0416    5.5691 H         1 MA4         0.0584
     86 H8         60.6872   54.0847   -0.1768 H         1 MA4         0.2101
     87 H9         60.9957   50.8844   -1.0065 H         1 MA4         0.2100
     88 H10        62.5880   50.2352    5.7345 H         1 MA4         0.2095
     89 H11        60.9650   48.5113    1.5370 H         1 MA4         0.2100
     90 H12        54.9696   54.5340    2.3562 H         1 MA4         0.0937
     91 H13        57.0259   56.6220    1.4109 H         1 MA4         0.0671
     92 H14        56.6588   53.5949    0.9093 H         1 MA4         0.0648
     93 H15        58.7833   55.2011    2.4142 H         1 MA4         0.0651
     94 H16        56.7234   53.2005    3.3901 H         1 MA4         0.0647
     95 H17        58.7047   53.0700    4.8154 H         1 MA4         0.0584
     96 H18        57.4397   54.0049    5.6828 H         1 MA4         0.0584
     97 H19        55.0329   56.6948    0.2826 H         1 MA4         0.2101
     98 H20        57.5578   54.8033   -0.8491 H         1 MA4         0.2100
     99 H21        59.5354   55.0990    5.7001 H         1 MA4         0.2095
    100 H22        53.4893   57.0896    4.3731 H         1 MA4         0.0561
    101 H23        54.0008   55.3677    4.3632 H         1 MA4         0.0561
    102 H24        52.6792   54.9870    2.3060 H         1 MA4         0.0287
    103 H25        52.1679   56.7089    2.3158 H         1 MA4         0.0287
    104 H26        51.6820   56.0128    4.9380 H         1 MA4         0.0266
    105 H27        51.3496   54.4517    4.1139 H         1 MA4         0.0266
    106 H28        49.8693   55.5982    2.5224 H         1 MA4         0.0265
    107 H29        50.2136   57.1681    3.3247 H         1 MA4         0.0265
    108 H30        48.4065   54.9895    4.0155 H         1 MA4         0.0265
    109 H31        48.3124   56.7571    4.3212 H         1 MA4         0.0265
    110 H32        49.6040   56.4759    6.3219 H         1 MA4         0.0268
    111 H33        49.6853   54.7075    6.0172 H         1 MA4         0.0268
    112 H34        47.0327   56.1281    6.1975 H         1 MA4         0.0301
    113 H35        46.9726   56.1290    8.4863 H         1 MA4         0.0268
    114 H36        48.6728   56.6123    8.1659 H         1 MA4         0.0268
    115 H37        48.2343   54.9268   10.0624 H         1 MA4         0.0265
    116 H38        49.5316   54.5449    8.8800 H         1 MA4         0.0265
    117 H39        46.7949   53.2886    9.1714 H         1 MA4         0.0265
    118 H40        48.4139   52.5213    9.3010 H         1 MA4         0.0265
    119 H41        47.1254   52.0517    7.1791 H         1 MA4         0.0265
    120 H42        48.7946   52.6830    6.9749 H         1 MA4         0.0265
    121 H43        47.5056   53.7453    5.3488 H         1 MA4         0.0268
    122 H44        46.1539   54.0536    6.4910 H         1 MA4         0.0268
    123 H45        50.0889   60.8580    0.1589 H         1 MA4         0.0353
    124 H46        49.2724   59.3183   -0.2762 H         1 MA4         0.0353
    125 H47        50.3804   59.3795    1.1364 H         1 MA4         0.0353
    126 H48        48.2406   61.3528    1.5872 H         1 MA4         0.0447
    127 H49        47.8296   58.2107    2.0416 H         1 MA4         0.0453
    128 H50        46.6413   60.9375    3.0394 H         1 MA4         0.0423
    129 H51        47.2627   60.0339    5.0087 H         1 MA4         0.0287
    130 H52        47.1568   58.3461    4.4032 H         1 MA4         0.0287
    131 H53        45.4904   59.4162    6.2623 H         1 MA4         0.0267
    132 H54        45.0541   58.0581    5.1704 H         1 MA4         0.0267
    133 H55        44.2375   60.9651    5.0152 H         1 MA4         0.0265
    134 H56        43.2073   59.5030    5.1810 H         1 MA4         0.0265
    135 H57        43.5678   60.8378    2.8644 H         1 MA4         0.0267
    136 H58        43.2021   59.0822    2.9679 H         1 MA4         0.0267
    137 H59        45.1821   58.4766    2.1199 H         1 MA4         0.0287
    138 H60        45.1414   60.1374    1.4366 H         1 MA4         0.0287
    139 H61        33.7666   60.7067    5.5848 H         1 LN1         0.1239
    140 H62        33.5904   63.2698    6.0257 H         1 LN1         0.0148
    141 H63        33.4923   66.0853    5.7086 H         1 LN1         0.0558
    142 H64        33.9869   67.9056    4.0789 H         1 LN1         0.0506
    143 H65        34.9131   67.3484    1.8561 H         1 LN1         0.0506
    144 H66        35.3743   65.0002    1.2191 H         1 LN1         0.1096
    145 H67        34.6797   61.2193    1.7499 H         1 LN1         0.1794
    146 H68        36.7877   63.1389    1.1622 H         1 LN1         0.0740
    147 H69        34.5158   61.0623   -0.4109 H         1 LN1         0.1494
    148 H70        37.6988   59.5292    1.3751 H         1 LN1         0.0252
    149 H71        36.9428   59.0708   -0.1885 H         1 LN1         0.0252
    150 H72        35.9102   59.4411    1.2340 H         1 LN1         0.0252
    151 H73        38.0158   62.6209   -0.7418 H         1 LN1         0.0635
    152 H74        38.1677   60.9388   -1.3535 H         1 LN1         0.0635
    153 H75        41.0233   59.5672   -0.8979 H         1 LN1         0.0653
    154 H76        41.5980   60.1110    0.7148 H         1 LN1         0.0653
    155 H77        41.8522   60.8973   -2.9496 H         1 LN1         0.0454
    156 H78        43.6941   61.2013    0.9092 H         1 LN1         0.0440
    157 H79        45.7042   62.2064   -0.1279 H         1 LN1         0.0493
    158 H80        46.6732   62.8137   -1.9883 H         1 LN1         0.2421
    159 H81        43.0296   61.6049   -4.6371 H         1 LN1         0.2442
@<TRIPOS>BOND
     1    1    2 1  
     2    1    9 1  
     3   11    1 1  
     4    2    3 1  
     5    2    7 1  
     6    3    4 1  
     7    3    8 1  
     8    5    4 1  
     9    4   12 1  
    10    5    6 1  
    11    9    5 1  
    12    6   10 1  
    13   16   11 1  
    14   14   13 1  
    15   13   19 1  
    16   13   22 1  
    17   15   14 1  
    18   14   20 1  
    19   15   16 1  
    20   15   21 1  
    21   16   17 1  
    22   17   18 1  
    23   17   22 1  
    24   18   23 1  
    25   19   24 1  
    26   24   25 1  
    27   25   26 1  
    28   26   27 1  
    29   27   28 1  
    30   28   29 1  
    31   29   30 1  
    32   30   31 1  
    33   30   35 1  
    34   31   32 1  
    35   32   33 1  
    36   33   34 1  
    37   34   35 1  
    38   36   37 1  
    39   37   38 2  
    40   38   39 1  
    41   39   40 1  
    42   39   44 1  
    43   40   41 1  
    44   41   42 1  
    45   42   43 1  
    46   43   44 1  
    47   45   46 2  
    48   46   47 1  
    49   47   48 1  
    50   47   55 2  
    51   48   49 2  
    52   49   50 1  
    53   49   54 1  
    54   50   51 2  
    55   51   52 1  
    56   52   53 2  
    57   53   54 1  
    58   54   55 1  
    59   55   56 1  
    60   56   57 1  
    61   57   58 1  
    62   57   61 1  
    63   58   59 ar 
    64   58   60 ar 
    65   61   62 1  
    66   61   65 1  
    67   61   66 1  
    68   62   63 ar 
    69   62   64 ar 
    70   66   67 1  
    71   67   68 1  
    72   68   69 2  
    73   68   70 1  
    74   70   71 1  
    75   71   72 ar 
    76   71   73 ar 
    77   72   77 ar 
    78   73   74 ar 
    79   74   75 ar 
    80   75   76 1  
    81   75   77 ar 
    82   77   78 1  
    83    1   79 1  
    84    2   80 1  
    85    3   81 1  
    86    4   82 1  
    87    5   83 1  
    88    6   84 1  
    89    6   85 1  
    90    7   86 1  
    91    8   87 1  
    92   10   88 1  
    93   12   89 1  
    94   13   90 1  
    95   14   91 1  
    96   15   92 1  
    97   16   93 1  
    98   17   94 1  
    99   18   95 1  
   100   18   96 1  
   101   20   97 1  
   102   21   98 1  
   103   23   99 1  
   104   24  100 1  
   105   24  101 1  
   106   25  102 1  
   107   25  103 1  
   108   26  104 1  
   109   26  105 1  
   110   27  106 1  
   111   27  107 1  
   112   28  108 1  
   113   28  109 1  
   114   29  110 1  
   115   29  111 1  
   116   30  112 1  
   117   31  113 1  
   118   31  114 1  
   119   32  115 1  
   120   32  116 1  
   121   33  117 1  
   122   33  118 1  
   123   34  119 1  
   124   34  120 1  
   125   35  121 1  
   126   35  122 1  
   127   36  123 1  
   128   36  124 1  
   129   36  125 1  
   130   37  126 1  
   131   38  127 1  
   132   39  128 1  
   133   40  129 1  
   134   40  130 1  
   135   41  131 1  
   136   41  132 1  
   137   42  133 1  
   138   42  134 1  
   139   43  135 1  
   140   43  136 1  
   141   44  137 1  
   142   44  138 1  
   143   46  139 1  
   144   48  140 1  
   145   50  141 1  
   146   51  142 1  
   147   52  143 1  
   148   53  144 1  
   149   56  145 1  
   150   57  146 1  
   151   62  147 1  
   152   65  148 1  
   153   65  149 1  
   154   65  150 1  
   155   66  151 1  
   156   66  152 1  
   157   70  153 1  
   158   70  154 1  
   159   72  155 1  
   160   73  156 1  
   161   74  157 1  
   162   76  158 1  
   163   78  159 1  
@<TRIPOS>SUBSTRUCTURE
     1 MA4         1

