### 
### Created by X-TOOL on Fri Sep 26 17:34:45 2014
### 

@<TRIPOS>MOLECULE
3dpc_ligand
  156   158     1     0     0
SMALL
GAST_HUCK


@<TRIPOS>ATOM
      1 N          15.6630   16.9420  -14.9720 N.4       1 HIS         0.2390
      2 CA         15.5770   17.9510  -16.0200 C.3       1 HIS         0.0708
      3 C          14.5030   18.9860  -15.7030 C.2       1 HIS         0.2282
      4 O          14.5410   20.1080  -16.2070 O.2       1 HIS        -0.3906
      5 CB         15.2910   17.2950  -17.3730 C.3       1 HIS         0.0347
      6 CG         16.4760   16.6020  -17.9700 C.2       1 HIS         0.0005
      7 ND1        16.3960   15.8530  -19.1250 N.2       1 HIS        -0.3251
      8 CD2        17.7690   16.5440  -17.5730 C.2       1 HIS         0.0293
      9 CE1        17.5890   15.3640  -19.4130 C.2       1 HIS         0.0907
     10 NE2        18.4400   15.7680  -18.4870 N.pl3     1 HIS        -0.2752
     11 N          13.5480   18.6010  -14.8630 N.am      1 HIS        -0.2612
     12 CA         13.2000   19.3880  -13.6860 C.3       1 HIS         0.1283
     13 C          13.3520   18.5680  -12.4090 C.2       1 HIS         0.2037
     14 O          12.7700   17.4910  -12.2790 O.2       1 HIS        -0.3944
     15 CB         11.7820   19.9260  -13.8080 C.3       1 HIS        -0.0244
     16 N          14.1370   19.0850  -11.4700 N.am      1 HIS        -0.2611
     17 CA         14.1040   18.6040  -10.0940 C.3       1 HIS         0.1614
     18 CB         14.5250   17.1260  -10.0020 C.3       1 HIS         0.1262
     19 CG2        15.9510   17.0060  -10.0180 C.3       1 HIS        -0.0298
     20 OG1        13.9810   16.4960   -8.7280 O.3       1 HIS        -0.2685
     21 P          12.7660   15.6680   -8.4300 P.3       1 HIS         0.2014
     22 O1P        12.6360   15.0120   -7.1080 O.co2     1 HIS        -0.5537
     23 O2P        11.4620   16.5760   -8.6840 O.co2     1 HIS        -0.5537
     24 O3P        12.6570   14.5370   -9.5680 O.co2     1 HIS        -0.5537
     25 C          15.0110   19.4380   -9.1960 C.2       1 HIS         0.2093
     26 O          15.9230   18.9120   -8.5580 O.2       1 HIS        -0.3941
     27 N          14.7550   20.7420   -9.1520 N.am      1 HIS        -0.2497
     28 CA         14.3010   21.4790  -10.3350 C.3       1 HIS         0.1340
     29 C          15.4480   21.7630  -11.2990 C.2       1 HIS         0.2066
     30 O          16.5990   21.8680  -10.8740 O.2       1 HIS        -0.3942
     31 CB         13.7740   22.7880   -9.7450 C.3       1 HIS        -0.0104
     32 CG         14.5560   22.9710   -8.4930 C.3       1 HIS        -0.0281
     33 CD         14.7870   21.5910   -7.9480 C.3       1 HIS         0.0369
     34 N          15.1310   21.8850  -12.5840 N.am      1 HIS        -0.2498
     35 CA         16.1520   22.1070  -13.6120 C.3       1 HIS         0.1338
     36 C          17.0090   23.3300  -13.3050 C.2       1 HIS         0.2041
     37 O          16.7100   24.0730  -12.3700 O.2       1 HIS        -0.3944
     38 CB         15.3240   22.3480  -14.8750 C.3       1 HIS        -0.0104
     39 CG         14.0420   22.9120  -14.3740 C.3       1 HIS        -0.0281
     40 CD         13.7800   22.2340  -13.0590 C.3       1 HIS         0.0369
     41 N          18.0620   23.5330  -14.0900 N.am      1 HIS        -0.2637
     42 CA         18.4200   24.8650  -14.5630 C.3       1 HIS         0.1310
     43 C          18.0780   25.0360  -16.0390 C.2       1 HIS         0.2039
     44 O          17.9820   24.0590  -16.7810 O.2       1 HIS        -0.3944
     45 CB         19.9090   25.1330  -14.3340 C.3       1 HIS        -0.0122
     46 CG         20.7660   23.8790  -14.2940 C.3       1 HIS        -0.0440
     47 CD         21.2680   23.5080  -15.6800 C.3       1 HIS        -0.0124
     48 CE         21.6540   22.0400  -15.7530 C.3       1 HIS        -0.0354
     49 NZ         22.6570   21.7830  -16.8230 N.4       1 HIS         0.2185
     50 N          17.8960   26.2840  -16.4590 N.am      1 HIS        -0.2637
     51 CA         16.9770   26.6000  -17.5460 C.3       1 HIS         0.1310
     52 C          15.5640   26.1190  -17.2320 C.2       1 HIS         0.2039
     53 O          15.0230   26.4080  -16.1650 O.2       1 HIS        -0.3944
     54 CB         17.4650   25.9800  -18.8570 C.3       1 HIS        -0.0122
     55 CG         18.1370   26.9660  -19.7980 C.3       1 HIS        -0.0440
     56 CD         19.2130   27.7670  -19.0830 C.3       1 HIS        -0.0124
     57 CE         18.7520   29.1890  -18.8090 C.3       1 HIS        -0.0354
     58 NZ         19.8260   30.1830  -19.0830 N.4       1 HIS         0.2185
     59 N          14.9730   25.3850  -18.1690 N.am      1 HIS        -0.2636
     60 CA         13.5310   25.1700  -18.1770 C.3       1 HIS         0.1325
     61 C          12.7760   26.4890  -18.0540 C.2       1 HIS         0.2040
     62 O          12.1440   26.7610  -17.0340 O.2       1 HIS        -0.3944
     63 CB         13.1240   24.2240  -17.0450 C.3       1 HIS        -0.0008
     64 CG         11.6980   24.4200  -16.5550 C.3       1 HIS         0.0044
     65 CD         11.6260   24.6930  -15.0660 C.2       1 HIS         0.0350
     66 OE1        11.3520   23.7460  -14.2980 O.co2     1 HIS        -0.5690
     67 OE2        11.8430   25.8550  -14.6620 O.co2     1 HIS        -0.5690
     68 N          12.8470   27.3050  -19.1010 N.am      1 HIS        -0.2640
     69 CA         12.8360   28.7550  -18.9450 C.3       1 HIS         0.1282
     70 C          12.2900   29.4390  -20.1930 C.2       1 HIS         0.2031
     71 O          12.0560   28.7940  -21.2150 O.2       1 HIS        -0.3944
     72 CB         14.2330   29.2640  -18.6260 C.3       1 HIS        -0.0244
     73 N          12.0890   30.7500  -20.1030 N.am      1 HIS        -0.2679
     74 CA         12.6490   31.6800  -21.0770 C.3       1 HIS         0.1057
     75 C          13.8410   31.0660  -21.8040 C.2       1 HIS         0.0618
     76 O          14.4550   31.7040  -22.6590 O.co2     1 HIS        -0.5665
     77 CB         13.0640   32.9850  -20.3950 C.3       1 HIS         0.0351
     78 CG         14.5230   33.3250  -20.6270 C.2       1 HIS         0.0387
     79 OD1        15.3950   32.5830  -20.1260 O.co2     1 HIS        -0.5688
     80 OD2        14.7990   34.3330  -21.3100 O.co2     1 HIS        -0.5688
     81 OXT        14.2210   29.9190  -21.4950 O.co2     1 HIS        -0.5665
     82 H1         16.3791   16.2729  -15.2078 H         1 HIS         0.2016
     83 H2         14.7767   16.4695  -14.8869 H         1 HIS         0.2016
     84 H3         15.8928   17.3856  -14.0965 H         1 HIS         0.2016
     85 H4         16.5466   18.4669  -16.0813 H         1 HIS         0.1116
     86 H5         14.9562   18.0748  -18.0729 H         1 HIS         0.0453
     87 H6         14.4885   16.5551  -17.2372 H         1 HIS         0.0453
     88 H7         18.1972   17.0229  -16.6936 H         1 HIS         0.0729
     89 H8         17.8299   14.7347  -20.2685 H         1 HIS         0.1199
     90 H9         19.4436   15.5385  -18.4553 H         1 HIS         0.2361
     91 H10        13.0553   17.7496  -15.0428 H         1 HIS         0.1884
     92 H11        13.8901   20.2427  -13.6286 H         1 HIS         0.0797
     93 H12        11.5357   20.5165  -12.9132 H         1 HIS         0.0277
     94 H13        11.0776   19.0860  -13.8983 H         1 HIS         0.0277
     95 H14        11.7076   20.5645  -14.7006 H         1 HIS         0.0277
     96 H15        14.7666   19.8229  -11.7132 H         1 HIS         0.1884
     97 H16        13.0711   18.6947   -9.7268 H         1 HIS         0.0830
     98 H17        14.1132   16.5886  -10.8690 H         1 HIS         0.0695
     99 H18        16.2303   15.9441   -9.9515 H         1 HIS         0.0260
    100 H19        16.3745   17.5508   -9.1614 H         1 HIS         0.0260
    101 H20        16.3443   17.4307  -10.9534 H         1 HIS         0.0260
    102 H21        13.5062   20.9289  -10.8600 H         1 HIS         0.0802
    103 H22        12.6991   22.7107   -9.5247 H         1 HIS         0.0313
    104 H23        13.9471   23.6247  -10.4378 H         1 HIS         0.0313
    105 H24        13.9880   23.5772   -7.7720 H         1 HIS         0.0287
    106 H25        15.5159   23.4626   -8.7096 H         1 HIS         0.0287
    107 H26        15.7627   21.5243   -7.4445 H         1 HIS         0.0524
    108 H27        13.9909   21.3069   -7.2441 H         1 HIS         0.0524
    109 H28        16.7980   21.2234  -13.7211 H         1 HIS         0.0802
    110 H29        15.1504   21.4043  -15.4128 H         1 HIS         0.0313
    111 H30        15.8295   23.0623  -15.5416 H         1 HIS         0.0313
    112 H31        13.2278   22.7001  -15.0826 H         1 HIS         0.0287
    113 H32        14.1315   23.9992  -14.2328 H         1 HIS         0.0287
    114 H33        13.2791   22.9163  -12.3565 H         1 HIS         0.0524
    115 H34        13.1650   21.3323  -13.1960 H         1 HIS         0.0524
    116 H35        18.6234   22.7519  -14.3634 H         1 HIS         0.1883
    117 H36        17.8413   25.6018  -13.9866 H         1 HIS         0.0800
    118 H37        20.0218   25.6592  -13.3746 H         1 HIS         0.0312
    119 H38        20.2739   25.7749  -15.1494 H         1 HIS         0.0312
    120 H39        20.1659   23.0475  -13.8960 H         1 HIS         0.0269
    121 H40        21.6294   24.0560  -13.6358 H         1 HIS         0.0269
    122 H41        22.1488   24.1223  -15.9184 H         1 HIS         0.0317
    123 H42        20.4731   23.7063  -16.4140 H         1 HIS         0.0317
    124 H43        20.7524   21.4449  -15.9602 H         1 HIS         0.0813
    125 H44        22.0800   21.7356  -14.7856 H         1 HIS         0.0813
    126 H45        22.8866   20.8016  -16.8396 H         1 HIS         0.1994
    127 H46        23.4900   22.3198  -16.6387 H         1 HIS         0.1994
    128 H47        22.2735   22.0535  -17.7151 H         1 HIS         0.1994
    129 H48        18.4024   27.0251  -16.0181 H         1 HIS         0.1883
    130 H49        16.9505   27.6930  -17.6670 H         1 HIS         0.0800
    131 H50        16.5990   25.5430  -19.3757 H         1 HIS         0.0312
    132 H51        18.1870   25.1860  -18.6158 H         1 HIS         0.0312
    133 H52        17.3786   27.6578  -20.1932 H         1 HIS         0.0269
    134 H53        18.5964   26.4115  -20.6295 H         1 HIS         0.0269
    135 H54        20.1147   27.7976  -19.7123 H         1 HIS         0.0317
    136 H55        19.4493   27.2765  -18.1272 H         1 HIS         0.0317
    137 H56        18.4542   29.2692  -17.7531 H         1 HIS         0.0813
    138 H57        17.8879   29.4129  -19.4517 H         1 HIS         0.0813
    139 H58        19.4824   31.1107  -18.8899 H         1 HIS         0.1994
    140 H59        20.1019   30.1215  -20.0505 H         1 HIS         0.1994
    141 H60        20.6209   29.9898  -18.4940 H         1 HIS         0.1994
    142 H61        15.5316   24.9695  -18.8869 H         1 HIS         0.1883
    143 H62        13.2580   24.7038  -19.1352 H         1 HIS         0.0801
    144 H63        13.8059   24.3861  -16.1972 H         1 HIS         0.0330
    145 H64        13.2264   23.1898  -17.4054 H         1 HIS         0.0330
    146 H65        11.1217   23.5091  -16.7744 H         1 HIS         0.0433
    147 H66        11.2551   25.2722  -17.0912 H         1 HIS         0.0433
    148 H67        12.9096   26.9145  -20.0195 H         1 HIS         0.1883
    149 H68        12.1762   29.0045  -18.1010 H         1 HIS         0.0797
    150 H69        14.2075   30.3577  -18.5116 H         1 HIS         0.0277
    151 H70        14.9166   28.9970  -19.4454 H         1 HIS         0.0277
    152 H71        14.5855   28.8056  -17.6903 H         1 HIS         0.0277
    153 H72        11.5396   31.1078  -19.3479 H         1 HIS         0.1876
    154 H73        11.8714   31.9084  -21.8207 H         1 HIS         0.0745
    155 H74        12.8928   32.8871  -19.3128 H         1 HIS         0.0471
    156 H75        12.4443   33.8026  -20.7918 H         1 HIS         0.0471
@<TRIPOS>BOND
     1    1    2 1  
     2    2    3 1  
     3    2    5 1  
     4    3    4 2  
     5    3   11 am 
     6    5    6 1  
     7    6    7 1  
     8    6    8 2  
     9    7    9 2  
    10    8   10 1  
    11    9   10 1  
    12   11   12 1  
    13   12   13 1  
    14   12   15 1  
    15   13   14 2  
    16   13   16 am 
    17   16   17 1  
    18   17   18 1  
    19   17   25 1  
    20   18   19 1  
    21   18   20 1  
    22   20   21 1  
    23   21   22 ar 
    24   21   23 ar 
    25   21   24 ar 
    26   25   26 2  
    27   25   27 am 
    28   27   28 1  
    29   27   33 1  
    30   28   29 1  
    31   28   31 1  
    32   29   30 2  
    33   29   34 am 
    34   31   32 1  
    35   32   33 1  
    36   34   35 1  
    37   34   40 1  
    38   35   36 1  
    39   35   38 1  
    40   36   37 2  
    41   36   41 am 
    42   38   39 1  
    43   39   40 1  
    44   41   42 1  
    45   42   43 1  
    46   42   45 1  
    47   43   44 2  
    48   43   50 am 
    49   45   46 1  
    50   46   47 1  
    51   47   48 1  
    52   48   49 1  
    53   50   51 1  
    54   51   52 1  
    55   51   54 1  
    56   52   53 2  
    57   52   59 am 
    58   54   55 1  
    59   55   56 1  
    60   56   57 1  
    61   57   58 1  
    62   59   60 1  
    63   60   61 1  
    64   60   63 1  
    65   61   62 2  
    66   61   68 am 
    67   63   64 1  
    68   64   65 1  
    69   65   66 ar 
    70   65   67 ar 
    71   68   69 1  
    72   69   70 1  
    73   69   72 1  
    74   70   71 2  
    75   70   73 am 
    76   73   74 1  
    77   74   75 1  
    78   74   77 1  
    79   75   76 ar 
    80   75   81 ar 
    81   77   78 1  
    82   78   79 ar 
    83   78   80 ar 
    84    1   82 1  
    85    1   83 1  
    86    1   84 1  
    87    2   85 1  
    88    5   86 1  
    89    5   87 1  
    90    8   88 1  
    91    9   89 1  
    92   10   90 1  
    93   11   91 1  
    94   12   92 1  
    95   15   93 1  
    96   15   94 1  
    97   15   95 1  
    98   16   96 1  
    99   17   97 1  
   100   18   98 1  
   101   19   99 1  
   102   19  100 1  
   103   19  101 1  
   104   28  102 1  
   105   31  103 1  
   106   31  104 1  
   107   32  105 1  
   108   32  106 1  
   109   33  107 1  
   110   33  108 1  
   111   35  109 1  
   112   38  110 1  
   113   38  111 1  
   114   39  112 1  
   115   39  113 1  
   116   40  114 1  
   117   40  115 1  
   118   41  116 1  
   119   42  117 1  
   120   45  118 1  
   121   45  119 1  
   122   46  120 1  
   123   46  121 1  
   124   47  122 1  
   125   47  123 1  
   126   48  124 1  
   127   48  125 1  
   128   49  126 1  
   129   49  127 1  
   130   49  128 1  
   131   50  129 1  
   132   51  130 1  
   133   54  131 1  
   134   54  132 1  
   135   55  133 1  
   136   55  134 1  
   137   56  135 1  
   138   56  136 1  
   139   57  137 1  
   140   57  138 1  
   141   58  139 1  
   142   58  140 1  
   143   58  141 1  
   144   59  142 1  
   145   60  143 1  
   146   63  144 1  
   147   63  145 1  
   148   64  146 1  
   149   64  147 1  
   150   68  148 1  
   151   69  149 1  
   152   72  150 1  
   153   72  151 1  
   154   72  152 1  
   155   73  153 1  
   156   74  154 1  
   157   77  155 1  
   158   77  156 1  
@<TRIPOS>SUBSTRUCTURE
     1 HIS         1

