### 
### Created by X-TOOL on Fri Sep 26 17:34:44 2014
### 

@<TRIPOS>MOLECULE
3evc_ligand
   41    43     1     0     0
SMALL
GAST_HUCK


@<TRIPOS>ATOM
      1 O3B        27.9010   30.0440  -39.7580 O.co2     1 GTP        -0.5891
      2 PB         28.2980   28.4930  -39.9260 P.3       1 GTP         0.2069
      3 O1B        29.3070   28.1620  -38.7160 O.co2     1 GTP        -0.5891
      4 O2B        27.1200   27.5970  -39.9510 O.co2     1 GTP        -0.5891
      5 O3A        29.1820   28.4080  -41.2690 O.3       1 GTP        -0.1548
      6 PA         28.4870   28.4730  -42.7200 P.3       1 GTP         0.3276
      7 O1A        29.4050   29.4650  -43.5940 O.co2     1 GTP        -0.5556
      8 O2A        27.0820   28.9360  -42.6590 O.co2     1 GTP        -0.5556
      9 O5'        28.6500   27.0160  -43.3840 O.3       1 GTP        -0.2436
     10 C5'        27.6360   26.0250  -43.2270 C.3       1 GTP         0.1132
     11 C4'        27.7570   24.9880  -44.3210 C.3       1 GTP         0.1190
     12 O4'        27.3640   25.5760  -45.5890 O.3       1 GTP        -0.3347
     13 C3'        29.1690   24.4780  -44.5600 C.3       1 GTP         0.1151
     14 O3'        29.4860   23.4180  -43.6670 O.3       1 GTP        -0.3864
     15 C2'        29.1130   24.0160  -46.0100 C.3       1 GTP         0.1407
     16 O2'        28.5440   22.7290  -46.1510 O.3       1 GTP        -0.3835
     17 C1'        28.1850   25.0680  -46.6280 C.3       1 GTP         0.2218
     18 N9         28.8810   26.1940  -47.2460 N.pl3     1 GTP        -0.0954
     19 C8         29.6100   27.1740  -46.6120 C.2       1 GTP         0.1855
     20 N7         30.1010   28.0620  -47.4350 N.2       1 GTP        -0.1929
     21 C5         29.6760   27.6410  -48.6880 C.2       1 GTP         0.2558
     22 C6         29.8970   28.2060  -49.9730 C.2       1 GTP         0.2628
     23 O6         30.5420   29.2200  -50.2670 O.2       1 GTP        -0.3594
     24 N1         29.2770   27.4620  -50.9720 N.am      1 GTP        -0.2478
     25 C2         28.5440   26.3180  -50.7670 C.cat     1 GTP         0.2041
     26 N2         28.0190   25.7430  -51.8600 N.pl3     1 GTP        -0.3327
     27 N3         28.3380   25.7780  -49.5760 N.pl3     1 GTP        -0.1901
     28 C4         28.9260   26.4880  -48.5900 C.2       1 GTP         0.3268
     29 H1         26.6468   26.5027  -43.2849 H         1 GTP         0.0648
     30 H2         27.7509   25.5373  -42.2477 H         1 GTP         0.0648
     31 H3         27.1013   24.1411  -44.0706 H         1 GTP         0.0651
     32 H4         29.9062   25.2850  -44.4365 H         1 GTP         0.0648
     33 H5         28.8763   22.7014  -43.7987 H         1 GTP         0.2100
     34 H6         30.1114   24.0300  -46.4714 H         1 GTP         0.0677
     35 H7         29.0629   22.0995  -45.6642 H         1 GTP         0.2101
     36 H8         27.5620   24.5807  -47.3924 H         1 GTP         0.1021
     37 H9         29.7621   27.2061  -45.5342 H         1 GTP         0.1823
     38 H10        29.3724   27.7854  -51.9135 H         1 GTP         0.1819
     39 H11        27.4594   24.8829  -51.7710 H         1 GTP         0.1774
     40 H12        28.1757   26.1618  -52.7879 H         1 GTP         0.1774
     41 H13        27.7934   24.9177  -49.4201 H         1 GTP         0.2519
@<TRIPOS>BOND
     1    1    2 ar 
     2    2    3 ar 
     3    2    4 ar 
     4    2    5 1  
     5    5    6 1  
     6    6    7 ar 
     7    6    8 ar 
     8    6    9 1  
     9    9   10 1  
    10   10   11 1  
    11   11   12 1  
    12   11   13 1  
    13   12   17 1  
    14   13   14 1  
    15   13   15 1  
    16   15   16 1  
    17   15   17 1  
    18   17   18 1  
    19   18   19 1  
    20   18   28 1  
    21   19   20 2  
    22   20   21 1  
    23   21   22 1  
    24   21   28 2  
    25   22   23 2  
    26   22   24 am 
    27   24   25 ar 
    28   25   26 ar 
    29   25   27 ar 
    30   27   28 1  
    31   10   29 1  
    32   10   30 1  
    33   11   31 1  
    34   13   32 1  
    35   14   33 1  
    36   15   34 1  
    37   16   35 1  
    38   17   36 1  
    39   19   37 1  
    40   24   38 1  
    41   26   39 1  
    42   26   40 1  
    43   27   41 1  
@<TRIPOS>SUBSTRUCTURE
     1 GTP         1

