### 
### Created by X-TOOL on Fri Sep 26 17:34:45 2014
### 

@<TRIPOS>MOLECULE
3ffu_ligand
   45    47     1     0     0
SMALL
GAST_HUCK


@<TRIPOS>ATOM
      1 PG         28.0640   -8.8070  -18.3680 P.3       1 GTP         0.1879
      2 O1G        27.8920   -7.4940  -19.1260 O.co2     1 GTP        -0.6091
      3 O2G        27.9650   -8.5420  -16.8670 O.co2     1 GTP        -0.6091
      4 O3G        29.4530   -9.3790  -18.6510 O.co2     1 GTP        -0.6091
      5 O3B        26.8900   -9.8310  -18.8790 O.3       1 GTP        -0.1546
      6 PB         25.3030   -9.6130  -18.6110 P.3       1 GTP         0.3553
      7 O1B        24.7850   -8.4300  -19.3960 O.co2     1 GTP        -0.5652
      8 O2B        24.5400  -10.8720  -18.9330 O.co2     1 GTP        -0.5652
      9 O3A        25.1250   -9.2980  -17.0280 O.3       1 GTP        -0.1171
     10 PA         25.2450  -10.5020  -15.9700 P.3       1 GTP         0.3266
     11 O1A        24.8180  -11.7810  -16.6340 O.co2     1 GTP        -0.5692
     12 O2A        26.6510  -10.5600  -15.4570 O.co2     1 GTP        -0.5692
     13 O5'        24.2210  -10.2300  -14.7690 O.3       1 GTP        -0.2441
     14 C5'        24.2360   -9.0110  -14.0810 C.3       1 GTP         0.1131
     15 C4'        24.3400   -9.2030  -12.5590 C.3       1 GTP         0.1190
     16 O4'        23.3160   -9.9900  -11.9480 O.3       1 GTP        -0.3347
     17 C3'        25.6760   -9.8060  -12.1740 C.3       1 GTP         0.1151
     18 O3'        26.4020   -8.8250  -11.4500 O.3       1 GTP        -0.3864
     19 C2'        25.3010  -10.9980  -11.3180 C.3       1 GTP         0.1407
     20 O2'        26.1050  -11.0240  -10.1730 O.3       1 GTP        -0.3835
     21 C1'        23.8720  -10.7390  -10.8780 C.3       1 GTP         0.2218
     22 N9         23.1190  -11.9960  -10.6240 N.pl3     1 GTP        -0.0954
     23 C8         22.6820  -12.4990   -9.4190 C.2       1 GTP         0.1855
     24 N7         22.0200  -13.6640   -9.6750 N.2       1 GTP        -0.1929
     25 C5         22.0110  -13.9070  -11.0110 C.2       1 GTP         0.2558
     26 C6         21.4890  -14.9210  -11.8230 C.2       1 GTP         0.2628
     27 O6         20.8760  -15.8820  -11.3500 O.2       1 GTP        -0.3594
     28 N1         21.6710  -14.8630  -13.1900 N.am      1 GTP        -0.2478
     29 C2         22.3640  -13.8090  -13.7470 C.cat     1 GTP         0.2041
     30 N2         22.5720  -13.7100  -15.0520 N.pl3     1 GTP        -0.3327
     31 N3         22.8650  -12.8200  -12.9460 N.pl3     1 GTP        -0.1901
     32 C4         22.7050  -12.8660  -11.6060 C.2       1 GTP         0.3268
     33 H1         23.3076   -8.4658  -14.3064 H         1 GTP         0.0648
     34 H2         25.0996   -8.4219  -14.4233 H         1 GTP         0.0648
     35 H3         24.2800   -8.1980  -12.1159 H         1 GTP         0.0651
     36 H4         26.2499  -10.1241  -13.0568 H         1 GTP         0.0648
     37 H5         27.2462   -9.1791  -11.1961 H         1 GTP         0.2100
     38 H6         25.3897  -11.9393  -11.8802 H         1 GTP         0.0677
     39 H7         25.8687  -11.7720   -9.6371 H         1 GTP         0.2101
     40 H8         23.8661  -10.1396   -9.9557 H         1 GTP         0.1021
     41 H9         22.8367  -12.0487   -8.4396 H         1 GTP         0.1823
     42 H10        21.3009  -15.5842  -13.7755 H         1 GTP         0.1819
     43 H11        23.0946  -12.9073  -15.4308 H         1 GTP         0.1774
     44 H12        22.2111  -14.4358  -15.6875 H         1 GTP         0.1774
     45 H13        23.3710  -12.0297  -13.3706 H         1 GTP         0.2519
@<TRIPOS>BOND
     1    1    2 ar 
     2    1    3 ar 
     3    1    4 ar 
     4    1    5 1  
     5    5    6 1  
     6    6    7 ar 
     7    6    8 ar 
     8    6    9 1  
     9    9   10 1  
    10   10   11 ar 
    11   10   12 ar 
    12   10   13 1  
    13   13   14 1  
    14   14   15 1  
    15   15   16 1  
    16   15   17 1  
    17   16   21 1  
    18   17   18 1  
    19   17   19 1  
    20   19   20 1  
    21   19   21 1  
    22   21   22 1  
    23   22   23 1  
    24   22   32 1  
    25   23   24 2  
    26   24   25 1  
    27   25   26 1  
    28   25   32 2  
    29   26   27 2  
    30   26   28 am 
    31   28   29 ar 
    32   29   30 ar 
    33   29   31 ar 
    34   31   32 1  
    35   14   33 1  
    36   14   34 1  
    37   15   35 1  
    38   17   36 1  
    39   18   37 1  
    40   19   38 1  
    41   20   39 1  
    42   21   40 1  
    43   23   41 1  
    44   28   42 1  
    45   30   43 1  
    46   30   44 1  
    47   31   45 1  
@<TRIPOS>SUBSTRUCTURE
     1 GTP         1

