### 
### Created by X-TOOL on Fri Sep 26 17:34:46 2014
### 

@<TRIPOS>MOLECULE
3ggj_ligand
   33    34     1     0     0
SMALL
GAST_HUCK


@<TRIPOS>ATOM
      1 N1         18.7860   53.5100    6.7100 N.am      1 MOL        -0.2478
      2 C8         20.6450   57.1360    8.6610 C.2       1 MOL         0.1825
      3 C6         19.9500   53.9050    7.3010 C.2       1 MOL         0.2628
      4 N7         21.0780   55.8700    8.4050 N.2       1 MOL        -0.1931
      5 C5         20.0710   55.2070    7.7790 C.2       1 MOL         0.2557
      6 C2         17.7550   54.3900    6.5930 C.cat     1 MOL         0.2041
      7 OAD        21.7210   60.0450   12.3500 O.co2     1 MOL        -0.5622
      8 PAT        20.6430   60.1770   13.4040 P.3       1 MOL         0.0600
      9 OAE        20.2860   61.6220   13.7150 O.co2     1 MOL        -0.5622
     10 OAC        20.8850   59.3070   14.6200 O.co2     1 MOL        -0.5622
     11 CAJ        19.1100   59.5380   12.6830 C.3       1 MOL         0.0430
     12 CAH        19.3030   59.3850   11.1850 C.3       1 MOL         0.0627
     13 OAN        18.5850   58.2240   10.7680 O.3       1 MOL        -0.3755
     14 CAG        17.7700   58.4770    9.6090 C.3       1 MOL         0.0776
     15 CAI        18.5850   58.4850    8.3050 C.3       1 MOL         0.1065
     16 N9         19.3860   57.2700    8.1990 N.pl3     1 MOL        -0.1249
     17 C4         19.0000   56.0900    7.6490 C.2       1 MOL         0.3244
     18 N3         17.8480   55.6580    7.0580 N.pl3     1 MOL        -0.1902
     19 N2         16.6060   53.9970    6.0060 N.pl3     1 MOL        -0.3327
     20 O6         20.9690   53.0820    7.4240 O.2       1 MOL        -0.3594
     21 H1         18.6907   52.5767    6.3638 H         1 MOL         0.1819
     22 H2         21.2226   57.9138    9.1584 H         1 MOL         0.1822
     23 H3         18.2872   60.2409   12.8802 H         1 MOL         0.0474
     24 H4         18.8715   58.5603   13.1271 H         1 MOL         0.0474
     25 H5         20.3722   59.2658   10.9559 H         1 MOL         0.0574
     26 H6         18.9133   60.2725   10.6651 H         1 MOL         0.0574
     27 H7         17.2839   59.4567    9.7269 H         1 MOL         0.0589
     28 H8         17.0021   57.6925    9.5399 H         1 MOL         0.0589
     29 H9         19.2514   59.3601    8.2993 H         1 MOL         0.0664
     30 H10        17.8976   58.5419    7.4481 H         1 MOL         0.0664
     31 H11        17.0469   56.2988    6.9655 H         1 MOL         0.2519
     32 H12        16.5142   53.0366    5.6454 H         1 MOL         0.1774
     33 H13        15.8204   54.6573    5.9184 H         1 MOL         0.1774
@<TRIPOS>BOND
     1    3    1 am 
     2    1    6 ar 
     3    2    4 2  
     4   16    2 1  
     5    5    3 1  
     6    3   20 2  
     7    4    5 1  
     8    5   17 2  
     9    6   18 ar 
    10    6   19 ar 
    11    8    7 ar 
    12    8    9 ar 
    13    8   10 ar 
    14   11    8 1  
    15   12   11 1  
    16   13   12 1  
    17   14   13 1  
    18   15   14 1  
    19   15   16 1  
    20   16   17 1  
    21   17   18 1  
    22    1   21 1  
    23    2   22 1  
    24   11   23 1  
    25   11   24 1  
    26   12   25 1  
    27   12   26 1  
    28   14   27 1  
    29   14   28 1  
    30   15   29 1  
    31   15   30 1  
    32   18   31 1  
    33   19   32 1  
    34   19   33 1  
@<TRIPOS>SUBSTRUCTURE
     1 MOL         1

