### 
### Created by X-TOOL on Fri Sep 26 17:34:51 2014
### 

@<TRIPOS>MOLECULE
3m1j_ligand
   14    14     1     0     0
SMALL
GAST_HUCK


@<TRIPOS>ATOM
      1 CE1        -1.3940   11.3280   26.4010 C.ar      1 MBO        -0.1759
      2 CE2        -0.9900   12.6530   26.5500 C.ar      1 MBO        -0.1565
      3 CE3        -0.5410   13.0910   27.7980 C.ar      1 MBO        -0.1474
      4 CE4        -0.5060   12.2040   28.8790 C.ar      1 MBO        -0.1108
      5 CE5        -0.9090   10.8810   28.7240 C.ar      1 MBO        -0.1474
      6 CE6        -1.3560   10.4400   27.4840 C.ar      1 MBO        -0.1565
      7 CZ         -0.0330   12.6610   30.2320 C.2       1 MBO        -0.0155
      8 OZ1         0.3730   13.8280   30.3640 O.co2     1 MBO        -0.5955
      9 OZ2        -0.0800   11.8650   31.1960 O.co2     1 MBO        -0.5955
     10 HG         -2.1450   10.5780   24.3750 Hg        1 MBO         1.0000
     11 H          -1.0239   13.3390   25.7036 H         1 MBO         0.0277
     12 H          -0.2180   14.1237   27.9295 H         1 MBO         0.0228
     13 H          -0.8743   10.1947   29.5701 H         1 MBO         0.0228
     14 H          -1.6761    9.4061   27.3545 H         1 MBO         0.0277
@<TRIPOS>BOND
     1    1    2 ar 
     2    1    6 ar 
     3    2    3 ar 
     4    3    4 ar 
     5    4    5 ar 
     6    4    7 1  
     7    5    6 ar 
     8    7    8 ar 
     9    7    9 ar 
    10    1   10 1  
    11    2   11 1  
    12    3   12 1  
    13    5   13 1  
    14    6   14 1  
@<TRIPOS>SUBSTRUCTURE
     1 MBO         1

