### 
### Created by X-TOOL on Fri Sep 26 17:34:53 2014
### 

@<TRIPOS>MOLECULE
3m93_ligand
   45    47     1     0     0
SMALL
GAST_HUCK


@<TRIPOS>ATOM
      1 PA         -4.5780  -14.4720  -32.6400 P.3       1 M7G         0.3276
      2 O1A        -3.1260  -14.4970  -32.2140 O.co2     1 M7G        -0.5556
      3 O2A        -5.3470  -15.7750  -32.6150 O.co2     1 M7G        -0.5556
      4 O3A        -5.4220  -13.3930  -31.7500 O.3       1 M7G        -0.1548
      5 O5'        -4.5990  -13.8110  -34.1190 O.3       1 M7G        -0.2436
      6 PB         -6.4150  -12.1940  -32.2600 P.3       1 M7G         0.2069
      7 O1B        -5.8290  -11.3990  -33.4140 O.co2     1 M7G        -0.5891
      8 O2B        -6.7950  -11.4120  -31.0200 O.co2     1 M7G        -0.5891
      9 O3B        -7.7410  -12.9530  -32.7940 O.co2     1 M7G        -0.5891
     10 C5'        -5.3030  -14.3290  -35.2520 C.3       1 M7G         0.1131
     11 C4'        -4.3810  -14.0990  -36.4420 C.3       1 M7G         0.1169
     12 O4'        -3.2150  -14.8980  -36.2570 O.3       1 M7G        -0.3529
     13 C3'        -4.9780  -14.5070  -37.7790 C.3       1 M7G         0.1129
     14 O3'        -4.5540  -13.5540  -38.7700 O.3       1 M7G        -0.3865
     15 C2'        -4.4120  -15.8910  -38.0680 C.3       1 M7G         0.1208
     16 O2'        -4.0860  -16.0840  -39.4570 O.3       1 M7G        -0.3857
     17 C1'        -3.1540  -15.9550  -37.2150 C.3       1 M7G         0.1656
     18 N9         -2.9440  -17.2340  -36.4920 N.2       1 M7G        -0.1577
     19 C8         -2.8620  -17.3680  -35.1570 C.2       1 M7G         0.2318
     20 N7         -2.6380  -18.6520  -34.8390 N.pl3     1 M7G        -0.0547
     21 CM7        -2.5010  -19.1760  -33.4550 C.3       1 M7G         0.0996
     22 C5         -2.5700  -19.3150  -35.9970 C.2       1 M7G         0.4523
     23 C6         -2.3520  -20.6690  -36.2300 C.2       1 M7G         0.4098
     24 O6         -2.1850  -21.4820  -35.2930 O.2       1 M7G        -0.2762
     25 N1         -2.3370  -21.0840  -37.5240 N.am      1 M7G        -0.2152
     26 C2         -2.5230  -20.2080  -38.5460 C.cat     1 M7G         0.2333
     27 N2         -2.4970  -20.6590  -39.8160 N.pl3     1 M7G        -0.3251
     28 N3         -2.7320  -18.8910  -38.3190 N.pl3     1 M7G        -0.1473
     29 C4         -2.7580  -18.4330  -37.0440 C.2       1 M7G         0.4104
     30 H          -6.2632  -13.8314  -35.3880 H         1 M7G         0.0648
     31 H          -5.5390  -15.3858  -35.1273 H         1 M7G         0.0648
     32 H          -4.1839  -13.0275  -36.4766 H         1 M7G         0.0650
     33 H          -6.0678  -14.5297  -37.7801 H         1 M7G         0.0647
     34 H          -4.9221  -13.7958  -39.6230 H         1 M7G         0.2100
     35 H          -5.1381  -16.6713  -37.8398 H         1 M7G         0.0655
     36 H          -3.4285  -15.4371  -39.7231 H         1 M7G         0.2100
     37 H          -2.3143  -15.8634  -37.9039 H         1 M7G         0.0758
     38 H          -2.9626  -16.5540  -34.4391 H         1 M7G         0.2243
     39 H          -1.6614  -18.6847  -32.9633 H         1 M7G         0.0658
     40 H          -3.4171  -18.9752  -32.8995 H         1 M7G         0.0658
     41 H          -2.3244  -20.2510  -33.4907 H         1 M7G         0.0658
     42 H          -2.1834  -22.0707  -37.7318 H         1 M7G         0.1858
     43 H          -2.3388  -21.6493  -40.0024 H         1 M7G         0.1812
     44 H          -2.6355  -20.0100  -40.5906 H         1 M7G         0.1812
     45 H          -2.8687  -18.2491  -39.0998 H         1 M7G         0.2869
@<TRIPOS>BOND
     1    1    2 ar 
     2    1    3 ar 
     3    1    4 1  
     4    1    5 1  
     5    4    6 1  
     6    5   10 1  
     7    6    7 ar 
     8    6    8 ar 
     9    6    9 ar 
    10   10   11 1  
    11   11   12 1  
    12   11   13 1  
    13   12   17 1  
    14   13   14 1  
    15   13   15 1  
    16   15   16 1  
    17   15   17 1  
    18   17   18 1  
    19   18   19 2  
    20   18   29 1  
    21   19   20 1  
    22   20   21 1  
    23   20   22 1  
    24   22   23 1  
    25   22   29 2  
    26   23   24 2  
    27   23   25 am 
    28   25   26 ar 
    29   26   27 ar 
    30   26   28 ar 
    31   28   29 1  
    32   10   30 1  
    33   10   31 1  
    34   11   32 1  
    35   13   33 1  
    36   14   34 1  
    37   15   35 1  
    38   16   36 1  
    39   17   37 1  
    40   19   38 1  
    41   21   39 1  
    42   21   40 1  
    43   21   41 1  
    44   25   42 1  
    45   27   43 1  
    46   27   44 1  
    47   28   45 1  
@<TRIPOS>SUBSTRUCTURE
     1 M7G         1

