### 
### Created by X-TOOL on Fri Sep 26 17:34:48 2014
### 

@<TRIPOS>MOLECULE
3nkx_ligand
  141   142     1     0     0
SMALL
GAST_HUCK


@<TRIPOS>ATOM
      1 N          53.2330  -10.4480   -5.0500 N.4       1 ARG         0.2379
      2 CA         53.0400   -9.4210   -3.9720 C.3       1 ARG         0.0651
      3 C          53.1090   -9.9890   -2.5270 C.2       1 ARG         0.2268
      4 O          52.3460  -10.8960   -2.1320 O.2       1 ARG        -0.3907
      5 CB         51.7660   -8.6020   -4.2070 C.3       1 ARG         0.0110
      6 CG         52.0360   -7.2100   -4.8670 C.3       1 ARG        -0.0125
      7 CD         51.9540   -6.0430   -3.8340 C.3       1 ARG         0.0629
      8 NE         50.5840   -5.8130   -3.3370 N.pl3     1 ARG        -0.2723
      9 CZ         50.2640   -5.4950   -2.0710 C.cat     1 ARG         0.2882
     10 NH1        51.2060   -5.3550   -1.1360 N.pl3     1 ARG        -0.2849
     11 NH2        48.9940   -5.3230   -1.7240 N.pl3     1 ARG        -0.2849
     12 N          54.0690   -9.4440   -1.7690 N.am      1 ARG        -0.2589
     13 CA         54.3290   -9.8760   -0.4090 C.3       1 ARG         0.1540
     14 C          53.2900   -9.2370    0.4630 C.2       1 ARG         0.2063
     15 O          52.7280   -8.1950    0.1120 O.2       1 ARG        -0.3943
     16 CB         55.6980   -9.3850    0.0300 C.3       1 ARG         0.0843
     17 OG         56.6260   -9.5980   -1.0130 O.3       1 ARG        -0.3903
     18 N          53.0600   -9.8480    1.6130 N.am      1 ARG        -0.2613
     19 CA         52.0580   -9.3570    2.5050 C.3       1 ARG         0.1565
     20 C          52.7080   -8.5330    3.5990 C.2       1 ARG         0.2065
     21 O          53.6400   -8.9960    4.2770 O.2       1 ARG        -0.3943
     22 CB         51.2710  -10.5200    3.0920 C.3       1 ARG         0.0924
     23 OG1        50.8080  -11.3310    2.0130 O.3       1 ARG        -0.3874
     24 CG2        50.0420  -10.0380    3.8820 C.3       1 ARG        -0.0346
     25 N          52.1890   -7.3290    3.8110 N.am      1 ARG        -0.2612
     26 CA         52.6290   -6.5460    4.9530 C.3       1 ARG         0.1586
     27 CB         52.8530   -5.1080    4.5140 C.3       1 ARG         0.1184
     28 OG         51.6660   -4.5880    3.9580 O.3       1 ARG        -0.2714
     29 C          51.6220   -6.6040    6.1050 C.2       1 ARG         0.2066
     30 O          50.6200   -7.3020    6.0530 O.2       1 ARG        -0.3943
     31 P          51.7770   -3.1490    3.3560 P.3       1 ARG         0.2010
     32 O1P        52.6050   -3.0720    2.0010 O.co2     1 ARG        -0.5537
     33 O2P        52.3540   -2.0340    4.3080 O.co2     1 ARG        -0.5537
     34 O3P        50.2760   -2.7570    2.9890 O.co2     1 ARG        -0.5537
     35 N          51.9210   -5.8870    7.1650 N.am      1 ARG        -0.2613
     36 CA         51.1320   -5.9040    8.3870 C.3       1 ARG         0.1567
     37 C          49.7510   -5.3710    8.1380 C.2       1 ARG         0.2090
     38 O          49.6300   -4.1630    7.8000 O.2       1 ARG        -0.3941
     39 CB         51.8360   -5.0310    9.4470 C.3       1 ARG         0.0924
     40 OG1        53.0530   -5.6900    9.7900 O.3       1 ARG        -0.3874
     41 CG2        51.1350   -5.0280   10.6660 C.3       1 ARG        -0.0346
     42 N          48.7050   -6.2140    8.3610 N.am      1 ARG        -0.2498
     43 CA         47.3060   -5.7590    8.2000 C.3       1 ARG         0.1338
     44 C          46.8460   -4.9180    9.3720 C.2       1 ARG         0.2042
     45 O          47.4740   -4.9370   10.4110 O.2       1 ARG        -0.3944
     46 CB         46.4940   -7.0520    8.2490 C.3       1 ARG        -0.0104
     47 CG         47.3420   -7.9840    9.1680 C.3       1 ARG        -0.0281
     48 CD         48.7930   -7.5660    8.9510 C.3       1 ARG         0.0369
     49 N          45.7390   -4.2100    9.2240 N.am      1 ARG        -0.2616
     50 CA         45.0490   -3.6620   10.3960 C.3       1 ARG         0.1476
     51 C          44.7040   -4.7210   11.4500 C.2       1 ARG         0.2063
     52 O          44.3470   -5.8420   11.0940 O.2       1 ARG        -0.3942
     53 CB         43.7680   -3.0010    9.9470 C.3       1 ARG         0.0773
     54 CG         44.0250   -1.6870    9.2250 C.2       1 ARG         0.1780
     55 OD1        44.8920   -0.9230    9.6170 O.2       1 ARG        -0.3970
     56 ND2        43.3180   -1.4500    8.1560 N.am      1 ARG        -0.3007
     57 N          44.7760   -4.3580   12.7370 N.am      1 ARG        -0.2633
     58 CA         44.3370   -5.2810   13.8380 C.3       1 ARG         0.1332
     59 C          42.8300   -5.7810   13.7530 C.2       1 ARG         0.2037
     60 O          42.5910   -7.0060   13.9430 O.2       1 ARG        -0.3944
     61 CB         44.8290   -4.8130   15.2890 C.3       1 ARG        -0.0063
     62 CG1        44.5750   -5.8760   16.3580 C.3       1 ARG        -0.0584
     63 CG2        46.3260   -4.4700   15.2820 C.3       1 ARG        -0.0584
     64 N          41.7950   -4.9370   13.5110 N.am      1 ARG        -0.2682
     65 CA         41.6600   -3.4380   13.6710 C.3       1 ARG         0.1004
     66 C          41.2940   -2.7150   12.3420 C.2       1 ARG         0.0615
     67 O          40.1284   -2.7100   11.8636 O.co2     1 ARG        -0.5665
     68 CB         42.8770   -2.7920   14.3680 C.3       1 ARG         0.0090
     69 CG         42.6440   -1.3960   14.8760 C.2       1 ARG        -0.0033
     70 ND1        41.3800   -0.8680   15.0940 N.2       1 ARG        -0.3253
     71 CD2        43.5180   -0.4240   15.2350 C.2       1 ARG         0.0291
     72 CE1        41.4870    0.3800   15.5340 C.2       1 ARG         0.0907
     73 NE2        42.7740    0.6720   15.6290 N.pl3     1 ARG        -0.2752
     74 O          42.2039   -2.1076   11.7168 O.co2     1 ARG        -0.5665
     75 H1         53.1747  -10.0028   -5.9525 H         1 ARG         0.2015
     76 H2         52.5155  -11.1521   -4.9757 H         1 ARG         0.2015
     77 H3         54.1384  -10.8786   -4.9457 H         1 ARG         0.2015
     78 H4         53.8838   -8.7212   -4.0625 H         1 ARG         0.1098
     79 H5         51.2727   -8.4385   -3.2375 H         1 ARG         0.0347
     80 H6         51.0984   -9.1767   -4.8658 H         1 ARG         0.0347
     81 H7         51.2868   -7.0397   -5.6542 H         1 ARG         0.0302
     82 H8         53.0414   -7.2183   -5.3132 H         1 ARG         0.0302
     83 H9         52.3120   -5.1214   -4.3161 H         1 ARG         0.0689
     84 H10        52.6019   -6.2849   -2.9786 H         1 ARG         0.0689
     85 H11        49.8124   -5.9032   -4.0133 H         1 ARG         0.2642
     86 H12        50.9415   -5.1109   -0.1709 H         1 ARG         0.2615
     87 H13        52.1975   -5.4910   -1.3795 H         1 ARG         0.2615
     88 H14        48.2493   -5.4258   -2.4281 H         1 ARG         0.2615
     89 H15        48.7535   -5.0868   -0.7507 H         1 ARG         0.2615
     90 H16        54.6283   -8.7107   -2.1556 H         1 ARG         0.1885
     91 H17        54.2773  -10.9724   -0.3364 H         1 ARG         0.0823
     92 H18        56.0176   -9.9388    0.9251 H         1 ARG         0.0606
     93 H19        55.6463   -8.3111    0.2623 H         1 ARG         0.0606
     94 H20        57.4829   -9.2916   -0.7404 H         1 ARG         0.2097
     95 H21        53.5908  -10.6588    1.8598 H         1 ARG         0.1884
     96 H22        51.3658   -8.7127    1.9431 H         1 ARG         0.0826
     97 H23        51.9249  -11.1063    3.7543 H         1 ARG         0.0639
     98 H24        50.3132  -12.0643    2.3592 H         1 ARG         0.2101
     99 H25        49.5032  -10.9069    4.2879 H         1 ARG         0.0257
    100 H26        49.3755   -9.4725    3.2142 H         1 ARG         0.0257
    101 H27        50.3685   -9.3901    4.7088 H         1 ARG         0.0257
    102 H28        51.4983   -6.9630    3.1873 H         1 ARG         0.1884
    103 H29        53.5838   -6.9586    5.3109 H         1 ARG         0.0827
    104 H30        53.6535   -5.0767    3.7603 H         1 ARG         0.0662
    105 H31        53.1448   -4.5017    5.3842 H         1 ARG         0.0662
    106 H32        52.7306   -5.3010    7.1298 H         1 ARG         0.1884
    107 H33        51.0572   -6.9380    8.7547 H         1 ARG         0.0826
    108 H34        51.9981   -4.0109    9.0686 H         1 ARG         0.0639
    109 H35        53.5154   -5.1786   10.4436 H         1 ARG         0.2101
    110 H36        51.6668   -4.3968   11.3932 H         1 ARG         0.0257
    111 H37        51.0675   -6.0556   11.0527 H         1 ARG         0.0257
    112 H38        50.1224   -4.6293   10.5057 H         1 ARG         0.0257
    113 H39        47.1703   -5.2149    7.2537 H         1 ARG         0.0802
    114 H40        46.3849   -7.4854    7.2439 H         1 ARG         0.0313
    115 H41        45.4984   -6.8743    8.6817 H         1 ARG         0.0313
    116 H42        47.1993   -9.0369    8.8833 H         1 ARG         0.0287
    117 H43        47.0567   -7.8471   10.2215 H         1 ARG         0.0287
    118 H44        49.3366   -7.5383    9.9069 H         1 ARG         0.0524
    119 H45        49.2981   -8.2587    8.2618 H         1 ARG         0.0524
    120 H46        45.3707   -4.0476    8.3086 H         1 ARG         0.1885
    121 H47        45.7027   -2.9094   10.8609 H         1 ARG         0.0826
    122 H48        43.1420   -2.8041   10.8298 H         1 ARG         0.0551
    123 H49        43.2372   -3.6822    9.2657 H         1 ARG         0.0551
    124 H50        43.4509   -0.5995    7.6470 H         1 ARG         0.1814
    125 H51        42.6427   -2.1186    7.8448 H         1 ARG         0.1814
    126 H52        45.1299   -3.4523   12.9704 H         1 ARG         0.1883
    127 H53        44.9155   -6.1980   13.6525 H         1 ARG         0.0802
    128 H54        44.2646   -3.9087   15.5603 H         1 ARG         0.0343
    129 H55        44.9289   -5.5080   17.3323 H         1 ARG         0.0234
    130 H56        45.1162   -6.7969   16.0953 H         1 ARG         0.0234
    131 H57        43.4972   -6.0879   16.4156 H         1 ARG         0.0234
    132 H58        46.5233   -3.7052   14.5164 H         1 ARG         0.0234
    133 H59        46.9085   -5.3750   15.0548 H         1 ARG         0.0234
    134 H60        46.6184   -4.0840   16.2697 H         1 ARG         0.0234
    135 H61        40.9723   -5.3873   13.1640 H         1 ARG         0.1877
    136 H62        40.8057   -3.2835   14.3465 H         1 ARG         0.0743
    137 H63        43.7072   -2.7598   13.6471 H         1 ARG         0.0413
    138 H64        43.1578   -3.4249   15.2227 H         1 ARG         0.0413
    139 H65        44.6046   -0.4938   15.2164 H         1 ARG         0.0729
    140 H66        40.6602    1.0467   15.7746 H         1 ARG         0.1199
    141 H67        43.1600    1.5728   15.9461 H         1 ARG         0.2361
@<TRIPOS>BOND
     1    1    2 1  
     2    2    3 1  
     3    2    5 1  
     4    3    4 2  
     5    3   12 am 
     6    5    6 1  
     7    6    7 1  
     8    7    8 1  
     9    8    9 ar 
    10    9   10 ar 
    11    9   11 ar 
    12   12   13 1  
    13   13   14 1  
    14   13   16 1  
    15   14   15 2  
    16   14   18 am 
    17   16   17 1  
    18   18   19 1  
    19   19   20 1  
    20   19   22 1  
    21   20   21 2  
    22   20   25 am 
    23   22   23 1  
    24   22   24 1  
    25   25   26 1  
    26   26   27 1  
    27   26   29 1  
    28   27   28 1  
    29   28   31 1  
    30   29   30 2  
    31   29   35 am 
    32   31   32 ar 
    33   31   33 ar 
    34   31   34 ar 
    35   35   36 1  
    36   36   37 1  
    37   36   39 1  
    38   37   38 2  
    39   37   42 am 
    40   39   40 1  
    41   39   41 1  
    42   42   43 1  
    43   42   48 1  
    44   43   44 1  
    45   43   46 1  
    46   44   45 2  
    47   44   49 am 
    48   46   47 1  
    49   47   48 1  
    50   49   50 1  
    51   50   51 1  
    52   50   53 1  
    53   51   52 2  
    54   51   57 am 
    55   53   54 1  
    56   54   55 2  
    57   54   56 am 
    58   57   58 1  
    59   58   59 1  
    60   58   61 1  
    61   59   60 2  
    62   59   64 am 
    63   61   62 1  
    64   61   63 1  
    65   64   65 1  
    66   65   66 1  
    67   65   68 1  
    68   66   67 ar 
    69   68   69 1  
    70   69   70 1  
    71   69   71 2  
    72   70   72 2  
    73   71   73 1  
    74   72   73 1  
    75   66   74 ar 
    76    1   75 1  
    77    1   76 1  
    78    1   77 1  
    79    2   78 1  
    80    5   79 1  
    81    5   80 1  
    82    6   81 1  
    83    6   82 1  
    84    7   83 1  
    85    7   84 1  
    86    8   85 1  
    87   10   86 1  
    88   10   87 1  
    89   11   88 1  
    90   11   89 1  
    91   12   90 1  
    92   13   91 1  
    93   16   92 1  
    94   16   93 1  
    95   17   94 1  
    96   18   95 1  
    97   19   96 1  
    98   22   97 1  
    99   23   98 1  
   100   24   99 1  
   101   24  100 1  
   102   24  101 1  
   103   25  102 1  
   104   26  103 1  
   105   27  104 1  
   106   27  105 1  
   107   35  106 1  
   108   36  107 1  
   109   39  108 1  
   110   40  109 1  
   111   41  110 1  
   112   41  111 1  
   113   41  112 1  
   114   43  113 1  
   115   46  114 1  
   116   46  115 1  
   117   47  116 1  
   118   47  117 1  
   119   48  118 1  
   120   48  119 1  
   121   49  120 1  
   122   50  121 1  
   123   53  122 1  
   124   53  123 1  
   125   56  124 1  
   126   56  125 1  
   127   57  126 1  
   128   58  127 1  
   129   61  128 1  
   130   62  129 1  
   131   62  130 1  
   132   62  131 1  
   133   63  132 1  
   134   63  133 1  
   135   63  134 1  
   136   64  135 1  
   137   65  136 1  
   138   68  137 1  
   139   68  138 1  
   140   71  139 1  
   141   72  140 1  
   142   73  141 1  
@<TRIPOS>SUBSTRUCTURE
     1 ARG         1

