### 
### Created by X-TOOL on Fri Sep 26 17:34:47 2014
### 

@<TRIPOS>MOLECULE
3oka_ligand
   41    43     1     0     0
SMALL
GAST_HUCK


@<TRIPOS>ATOM
      1 N2         23.7730    9.8250   83.3470 N.pl3     1 GDD        -0.3327
      2 C2         22.4610    9.6460   83.6370 C.cat     1 GDD         0.2041
      3 N1         21.5320    9.7430   82.6500 N.am      1 GDD        -0.2478
      4 N3         22.0870    9.3730   84.9120 N.pl3     1 GDD        -0.1901
      5 C4         20.7740    9.1890   85.2210 C.2       1 GDD         0.3268
      6 C5         19.8110    9.2840   84.2230 C.2       1 GDD         0.2558
      7 C6         20.2150    9.5660   82.9200 C.2       1 GDD         0.2628
      8 O6         19.3720    9.6570   82.0040 O.2       1 GDD        -0.3594
      9 N7         18.6070    9.0610   84.7980 N.2       1 GDD        -0.1929
     10 C8         18.8220    8.8340   86.1160 C.2       1 GDD         0.1855
     11 N9         20.1420    8.9130   86.3680 N.pl3     1 GDD        -0.0954
     12 C1'        20.8100    8.7350   87.6860 C.3       1 GDD         0.2218
     13 C2'        20.4950    9.9020   88.6140 C.3       1 GDD         0.1407
     14 O2'        21.4720   10.9420   88.5240 O.3       1 GDD        -0.3835
     15 C3'        20.4720    9.2710   89.9900 C.3       1 GDD         0.1151
     16 O3'        21.7760    9.3180   90.5780 O.3       1 GDD        -0.3864
     17 C4'        20.0980    7.8180   89.7430 C.3       1 GDD         0.1190
     18 O4'        20.3490    7.5540   88.3540 O.3       1 GDD        -0.3347
     19 C5'        18.6400    7.5690   90.1270 C.3       1 GDD         0.1132
     20 O5'        17.9170    6.9480   89.0570 O.3       1 GDD        -0.2436
     21 PA         16.8540    6.0040   89.3220 P.3       1 GDD         0.3276
     22 O1A        15.7970    6.4560   88.8280 O.co2     1 GDD        -0.5556
     23 O2A        17.1560    4.9290   88.7670 O.co2     1 GDD        -0.5556
     24 O3A        16.6970    5.8170   90.7640 O.3       1 GDD        -0.1548
     25 PB         16.0970    4.6700   91.4310 P.3       1 GDD         0.2069
     26 O2B        14.9930    4.3850   90.9200 O.co2     1 GDD        -0.5891
     27 O3B        16.8570    3.6820   91.3540 O.co2     1 GDD        -0.5891
     28 O1B        15.8970    4.9750   92.8260 O.co2     1 GDD        -0.5891
     29 H          24.4729    9.7542   84.0856 H         1 GDD         0.1774
     30 H          24.0604   10.0305   82.3901 H         1 GDD         0.1774
     31 H          21.8283    9.9511   81.6964 H         1 GDD         0.1819
     32 H          22.7941    9.3051   85.6440 H         1 GDD         0.2519
     33 H          18.0493    8.6213   86.8548 H         1 GDD         0.1823
     34 H          21.8780    8.6681   87.4789 H         1 GDD         0.1021
     35 H          19.5548   10.3912   88.3593 H         1 GDD         0.0677
     36 H          22.3330   10.5924   88.7650 H         1 GDD         0.2101
     37 H          19.7820    9.7841   90.6599 H         1 GDD         0.0648
     38 H          22.0579   10.2324   90.6560 H         1 GDD         0.2100
     39 H          20.6909    7.1413   90.3583 H         1 GDD         0.0651
     40 H          18.1721    8.5277   90.3507 H         1 GDD         0.0648
     41 H          18.6179    6.9051   90.9912 H         1 GDD         0.0648
@<TRIPOS>BOND
     1    1    2 ar 
     2    2    3 ar 
     3    2    4 ar 
     4    3    7 am 
     5    4    5 1  
     6    5    6 2  
     7    5   11 1  
     8    6    7 1  
     9    6    9 1  
    10    7    8 2  
    11    9   10 2  
    12   10   11 1  
    13   11   12 1  
    14   12   13 1  
    15   12   18 1  
    16   13   14 1  
    17   13   15 1  
    18   15   16 1  
    19   15   17 1  
    20   17   18 1  
    21   17   19 1  
    22   19   20 1  
    23   20   21 1  
    24   21   22 ar 
    25   21   23 ar 
    26   21   24 1  
    27   24   25 1  
    28   25   26 ar 
    29   25   27 ar 
    30   25   28 ar 
    31    1   29 1  
    32    1   30 1  
    33    3   31 1  
    34    4   32 1  
    35   10   33 1  
    36   12   34 1  
    37   13   35 1  
    38   14   36 1  
    39   15   37 1  
    40   16   38 1  
    41   17   39 1  
    42   19   40 1  
    43   19   41 1  
@<TRIPOS>SUBSTRUCTURE
     1 GDD         1

