### 
### Created by X-TOOL on Fri Sep 26 17:34:52 2014
### 

@<TRIPOS>MOLECULE
3q7p_ligand
   46    48     1     0     0
SMALL
GAST_HUCK


@<TRIPOS>ATOM
      1 PG         -5.4190   -2.4040    1.2440 P.3       1 GNP         0.1803
      2 O1G        -4.7080   -2.0810   -0.0550 O.co2     1 GNP        -0.5454
      3 O2G        -6.6960   -3.1790    1.0720 O.co2     1 GNP        -0.5454
      4 O3G        -5.5480   -1.1020    2.0010 O.co2     1 GNP        -0.5454
      5 N3B        -4.4770   -3.3270    2.1350 N.am      1 GNP        -0.1803
      6 PB         -3.1280   -2.7640    2.7450 P.3       1 GNP         0.2543
      7 O1B        -2.0440   -2.8330    1.7440 O.co2     1 GNP        -0.6257
      8 O2B        -3.4530   -1.4500    3.3450 O.co2     1 GNP        -0.6257
      9 O3A        -2.6560   -3.7040    3.8500 O.3       1 GNP        -0.1431
     10 PA         -2.9570   -3.5330    5.3390 P.3       1 GNP         0.2949
     11 O1A        -4.4110   -3.2810    5.4800 O.co2     1 GNP        -0.6129
     12 O2A        -2.0110   -2.5700    5.9380 O.co2     1 GNP        -0.6129
     13 O5'        -2.6720   -4.9390    5.9940 O.3       1 GNP        -0.2478
     14 C5'        -3.1800   -6.1440    5.4230 C.3       1 GNP         0.1128
     15 C4'        -3.1010   -7.2710    6.4410 C.3       1 GNP         0.1190
     16 O4'        -1.7240   -7.7360    6.5650 O.3       1 GNP        -0.3347
     17 C3'        -3.5370   -6.8880    7.8540 C.3       1 GNP         0.1151
     18 O3'        -4.1600   -7.9970    8.4870 O.3       1 GNP        -0.3864
     19 C2'        -2.2140   -6.5550    8.5370 C.3       1 GNP         0.1407
     20 O2'        -2.2460   -6.7750    9.9310 O.3       1 GNP        -0.3835
     21 C1'        -1.2560   -7.5460    7.8900 C.3       1 GNP         0.2218
     22 N9          0.1290   -7.0710    7.8670 N.pl3     1 GNP        -0.0954
     23 C8          0.5760   -5.8510    7.4180 C.2       1 GNP         0.1855
     24 N7          1.8670   -5.6920    7.5480 N.2       1 GNP        -0.1929
     25 C5          2.3130   -6.8740    8.1260 C.2       1 GNP         0.2558
     26 C6          3.6240   -7.2850    8.4990 C.2       1 GNP         0.2628
     27 O6          4.6980   -6.6790    8.3760 O.2       1 GNP        -0.3594
     28 N1          3.6290   -8.5570    9.0580 N.am      1 GNP        -0.2478
     29 C2          2.5100   -9.3250    9.2510 C.cat     1 GNP         0.2041
     30 N2          2.7180  -10.5130    9.8350 N.pl3     1 GNP        -0.3327
     31 N3          1.2820   -8.9670    8.8850 N.pl3     1 GNP        -0.1901
     32 C4          1.2520   -7.7330    8.3300 C.2       1 GNP         0.3268
     33 H1         -4.7404   -4.2753    2.3121 H         1 GNP         0.2132
     34 H2         -2.5825   -6.4089    4.5382 H         1 GNP         0.0648
     35 H3         -4.2283   -5.9935    5.1259 H         1 GNP         0.0648
     36 H4         -3.7393   -8.0932    6.0853 H         1 GNP         0.0651
     37 H5         -4.2176   -6.0238    7.8488 H         1 GNP         0.0648
     38 H6         -4.4277   -7.7501    9.3644 H         1 GNP         0.2100
     39 H7         -1.9188   -5.5147    8.3354 H         1 GNP         0.0677
     40 H8         -2.4388   -7.6894   10.1018 H         1 GNP         0.2101
     41 H9         -1.2906   -8.4978    8.4403 H         1 GNP         0.1021
     42 H10        -0.0807   -5.0918    6.9956 H         1 GNP         0.1823
     43 H11         4.5096   -8.9386    9.3389 H         1 GNP         0.1819
     44 H12         1.9247  -11.1454   10.0128 H         1 GNP         0.1774
     45 H13         3.6712  -10.7937   10.1061 H         1 GNP         0.1774
     46 H14         0.4497   -9.5608    9.0097 H         1 GNP         0.2519
@<TRIPOS>BOND
     1    1    2 ar 
     2    1    3 ar 
     3    1    4 ar 
     4    1    5 am 
     5    5    6 1  
     6    6    7 ar 
     7    6    8 ar 
     8    6    9 1  
     9    9   10 1  
    10   10   11 ar 
    11   10   12 ar 
    12   10   13 1  
    13   13   14 1  
    14   14   15 1  
    15   15   16 1  
    16   15   17 1  
    17   16   21 1  
    18   17   18 1  
    19   17   19 1  
    20   19   20 1  
    21   19   21 1  
    22   21   22 1  
    23   22   23 1  
    24   22   32 1  
    25   23   24 2  
    26   24   25 1  
    27   25   26 1  
    28   25   32 2  
    29   26   27 2  
    30   26   28 am 
    31   28   29 ar 
    32   29   30 ar 
    33   29   31 ar 
    34   31   32 1  
    35    5   33 1  
    36   14   34 1  
    37   14   35 1  
    38   15   36 1  
    39   17   37 1  
    40   18   38 1  
    41   19   39 1  
    42   20   40 1  
    43   21   41 1  
    44   23   42 1  
    45   28   43 1  
    46   30   44 1  
    47   30   45 1  
    48   31   46 1  
@<TRIPOS>SUBSTRUCTURE
     1 GNP         1

