### 
### Created by X-TOOL on Fri Sep 26 17:34:53 2014
### 

@<TRIPOS>MOLECULE
3rsb_ligand
   45    47     1     0     0
SMALL
GAST_HUCK


@<TRIPOS>ATOM
      1 PG          4.2640   20.0460   25.5870 P.3       1 GTP         0.1879
      2 O1G         5.5940   20.4770   25.0150 O.co2     1 GTP        -0.6091
      3 O2G         3.8710   20.9720   26.7130 O.co2     1 GTP        -0.6091
      4 O3G         3.2090   20.0830   24.5070 O.co2     1 GTP        -0.6091
      5 O3B         4.4170   18.5440   26.1470 O.3       1 GTP        -0.1546
      6 PB          3.8510   18.1500   27.6020 P.3       1 GTP         0.3553
      7 O1B         2.3470   18.0290   27.5480 O.co2     1 GTP        -0.5652
      8 O2B         4.2790   19.1590   28.6410 O.co2     1 GTP        -0.5652
      9 O3A         4.5020   16.7070   27.8950 O.3       1 GTP        -0.1171
     10 PA          6.0920   16.4850   27.7740 P.3       1 GTP         0.3266
     11 O1A         6.7750   17.8120   27.5410 O.co2     1 GTP        -0.5692
     12 O2A         6.4210   15.5040   26.6750 O.co2     1 GTP        -0.5692
     13 O5'         6.5170   15.9030   29.2140 O.3       1 GTP        -0.2441
     14 C5'         6.9210   14.5590   29.3540 C.3       1 GTP         0.1131
     15 C4'         5.7790   13.7460   29.9510 C.3       1 GTP         0.1190
     16 O4'         5.5980   14.0990   31.3100 O.3       1 GTP        -0.3347
     17 C3'         4.4730   14.0120   29.2200 C.3       1 GTP         0.1151
     18 O3'         3.9970   12.8240   28.6320 O.3       1 GTP        -0.3864
     19 C2'         3.4980   14.4930   30.2730 C.3       1 GTP         0.1407
     20 O2'         2.3980   13.6180   30.3500 O.3       1 GTP        -0.3835
     21 C1'         4.2650   14.4860   31.5850 C.3       1 GTP         0.2218
     22 N9          4.2480   15.8380   32.1730 N.pl3     1 GTP        -0.0954
     23 C8          5.1270   16.8540   31.8980 C.2       1 GTP         0.1855
     24 N7          4.7800   17.9330   32.6350 N.2       1 GTP        -0.1929
     25 C5          3.6930   17.6230   33.3750 C.2       1 GTP         0.2558
     26 C6          2.9420   18.3530   34.2880 C.2       1 GTP         0.2628
     27 O6          3.2400   19.5190   34.5430 O.2       1 GTP        -0.3594
     28 N1          1.8590   17.7630   34.9070 N.am      1 GTP        -0.2478
     29 C2          1.5300   16.4540   34.6160 C.cat     1 GTP         0.2041
     30 N2          0.4870   15.8840   35.2120 N.pl3     1 GTP        -0.3327
     31 N3          2.2820   15.7350   33.7080 N.pl3     1 GTP        -0.1901
     32 C4          3.3470   16.3080   33.0960 C.2       1 GTP         0.3268
     33 H           7.7879   14.5065   30.0126 H         1 GTP         0.0648
     34 H           7.1833   14.1544   28.3765 H         1 GTP         0.0648
     35 H           6.0403   12.6921   29.8550 H         1 GTP         0.0651
     36 H           4.6019   14.7461   28.4247 H         1 GTP         0.0648
     37 H           3.8478   12.1672   29.3160 H         1 GTP         0.2100
     38 H           3.1118   15.4852   30.0394 H         1 GTP         0.0677
     39 H           2.7055   12.7389   30.5828 H         1 GTP         0.2101
     40 H           3.8089   13.7918   32.2908 H         1 GTP         0.1021
     41 H           5.9644   16.8006   31.2023 H         1 GTP         0.1823
     42 H           1.3027   18.2927   35.5781 H         1 GTP         0.1819
     43 H          -0.0690   16.4137   35.8833 H         1 GTP         0.1774
     44 H           0.2429   14.9171   34.9979 H         1 GTP         0.1774
     45 H           2.0348   14.7682   33.4969 H         1 GTP         0.2519
@<TRIPOS>BOND
     1    1    2 ar 
     2    1    3 ar 
     3    1    4 ar 
     4    1    5 1  
     5    5    6 1  
     6    6    7 ar 
     7    6    8 ar 
     8    6    9 1  
     9    9   10 1  
    10   10   11 ar 
    11   10   12 ar 
    12   10   13 1  
    13   13   14 1  
    14   14   15 1  
    15   15   16 1  
    16   15   17 1  
    17   16   21 1  
    18   17   18 1  
    19   17   19 1  
    20   19   20 1  
    21   19   21 1  
    22   21   22 1  
    23   22   23 1  
    24   22   32 1  
    25   23   24 2  
    26   24   25 1  
    27   25   26 1  
    28   25   32 2  
    29   26   27 2  
    30   26   28 am 
    31   28   29 ar 
    32   29   30 ar 
    33   29   31 ar 
    34   31   32 1  
    35   14   33 1  
    36   14   34 1  
    37   15   35 1  
    38   17   36 1  
    39   18   37 1  
    40   19   38 1  
    41   20   39 1  
    42   21   40 1  
    43   23   41 1  
    44   28   42 1  
    45   30   43 1  
    46   30   44 1  
    47   31   45 1  
@<TRIPOS>SUBSTRUCTURE
     1 GTP         1

