### 
### Created by X-TOOL on Fri Sep 26 17:34:52 2014
### 

@<TRIPOS>MOLECULE
3rti_ligand
   35    37     1     0     0
SMALL
GAST_HUCK


@<TRIPOS>ATOM
      1 P          25.1070   68.0050   50.0200 P.3       1 FMP         0.2008
      2 O1P        24.2690   68.0560   48.8030 O.co2     1 FMP        -0.5537
      3 O2P        26.6660   68.2540   49.7070 O.co2     1 FMP        -0.5537
      4 O3P        24.6870   69.1010   51.1190 O.co2     1 FMP        -0.5537
      5 O5'        25.0370   66.5830   50.7660 O.3       1 FMP        -0.2734
      6 C5'        25.9270   66.2880   51.8450 C.3       1 FMP         0.1075
      7 C4'        25.6990   64.8620   52.3500 C.3       1 FMP         0.1206
      8 O4'        26.5530   64.5050   53.4510 O.3       1 FMP        -0.3360
      9 C3'        24.2850   64.6900   52.8990 C.3       1 FMP         0.1162
     10 O3'        23.3730   64.5480   51.8070 O.3       1 FMP        -0.3861
     11 C2'        24.5070   63.3370   53.5690 C.3       1 FMP         0.1332
     12 O2'        24.7600   62.3380   52.5770 O.3       1 FMP        -0.3823
     13 C1'        25.8010   63.6440   54.3280 C.3       1 FMP         0.1873
     14 C9         25.5180   64.4210   55.6160 C.2       1 FMP         0.1935
     15 N8         26.4350   65.0370   56.3560 N.pl3     1 FMP        -0.2522
     16 N7         25.9040   65.5660   57.3380 N.2       1 FMP        -0.3897
     17 C6         23.5450   65.7390   58.1780 C.ar      1 FMP         0.1254
     18 N6         23.7760   66.4740   59.2630 N.pl3     1 FMP        -0.3147
     19 C5         24.5890   65.3580   57.3440 C.ar      1 FMP         0.0328
     20 C4         24.2800   64.6160   56.2180 C.ar      1 FMP         0.1271
     21 N3         23.0140   64.2670   55.9610 N.ar      1 FMP        -0.2617
     22 C2         22.0490   64.6430   56.7870 C.ar      1 FMP         0.0742
     23 N1         22.2980   65.3730   57.8570 N.ar      1 FMP        -0.2512
     24 H          25.7406   66.9873   52.6601 H         1 FMP         0.0639
     25 H          26.9545   66.3798   51.4928 H         1 FMP         0.0639
     26 H          25.8998   64.2368   51.4800 H         1 FMP         0.0654
     27 H          23.8880   65.4890   53.5251 H         1 FMP         0.0650
     28 H          23.4123   65.3322   51.2547 H         1 FMP         0.2100
     29 H          23.6770   62.9689   54.1721 H         1 FMP         0.0693
     30 H          24.0069   62.2788   51.9847 H         1 FMP         0.2104
     31 H          26.3183   62.7227   54.5957 H         1 FMP         0.0995
     32 H          27.4322   65.0682   56.1437 H         1 FMP         0.2723
     33 H          22.9996   66.7632   59.8579 H         1 FMP         0.1809
     34 H          24.7295   66.7482   59.4997 H         1 FMP         0.1809
     35 H          21.0228   64.3414   56.5770 H         1 FMP         0.1085
@<TRIPOS>BOND
     1    1    2 ar 
     2    1    3 ar 
     3    1    4 ar 
     4    5    1 1  
     5    6    5 1  
     6    7    6 1  
     7    8    7 1  
     8    9    7 1  
     9   13    8 1  
    10    9   10 1  
    11   11    9 1  
    12   11   12 1  
    13   13   11 1  
    14   14   13 1  
    15   15   14 1  
    16   14   20 2  
    17   16   15 1  
    18   19   16 2  
    19   17   18 1  
    20   17   19 ar 
    21   17   23 ar 
    22   19   20 ar 
    23   20   21 ar 
    24   21   22 ar 
    25   22   23 ar 
    26    6   24 1  
    27    6   25 1  
    28    7   26 1  
    29    9   27 1  
    30   10   28 1  
    31   11   29 1  
    32   12   30 1  
    33   13   31 1  
    34   15   32 1  
    35   18   33 1  
    36   18   34 1  
    37   22   35 1  
@<TRIPOS>SUBSTRUCTURE
     1 FMP         1

