### 
### Created by X-TOOL on Fri Sep 26 17:34:51 2014
### 

@<TRIPOS>MOLECULE
3uat_ligand
  258   258     1     0     0
SMALL
GAST_HUCK


@<TRIPOS>ATOM
      1 N         -20.7100   -5.2770   10.5750 N.4       1 ARG         0.2379
      2 CA        -19.4150   -4.6800   10.8870 C.3       1 ARG         0.0651
      3 C         -18.4080   -5.7270   11.3580 C.2       1 ARG         0.2267
      4 O         -18.7900   -6.7980   11.8280 O.2       1 ARG        -0.3907
      5 CB        -19.5780   -3.5780   11.9350 C.3       1 ARG         0.0110
      6 CG        -20.2070   -2.3130   11.3830 C.3       1 ARG        -0.0125
      7 CD        -19.2700   -1.6050   10.4130 C.3       1 ARG         0.0629
      8 NE        -18.5460   -0.4580   10.9730 N.pl3     1 ARG        -0.2723
      9 CZ        -18.6740    0.0260   12.2090 C.cat     1 ARG         0.2882
     10 NH1       -19.5040   -0.5190   13.0860 N.pl3     1 ARG        -0.2849
     11 NH2       -17.9570    1.0770   12.5750 N.pl3     1 ARG        -0.2849
     12 N         -17.1200   -5.4170   11.2280 N.am      1 ARG        -0.2610
     13 CA        -16.6780   -4.1350   10.6890 C.3       1 ARG         0.1312
     14 C         -16.2360   -4.2710    9.2390 C.2       1 ARG         0.2040
     15 O         -15.2080   -4.8830    8.9530 O.2       1 ARG        -0.3944
     16 CB        -15.5360   -3.5750   11.5360 C.3       1 ARG        -0.0092
     17 CG        -15.9180   -3.3020   12.9780 C.3       1 ARG        -0.0156
     18 CD        -14.6860   -3.0930   13.8390 C.3       1 ARG         0.0627
     19 NE        -15.0210   -2.7370   15.2160 N.pl3     1 ARG        -0.2723
     20 CZ        -15.1990   -3.6160   16.1990 C.cat     1 ARG         0.2882
     21 NH1       -15.0790   -4.9160   15.9640 N.pl3     1 ARG        -0.2849
     22 NH2       -15.4980   -3.1950   17.4220 N.pl3     1 ARG        -0.2849
     23 N         -17.0100   -3.6890    8.3280 N.am      1 ARG        -0.2625
     24 CA        -16.7320   -3.8190    6.9030 C.3       1 ARG         0.1369
     25 C         -15.4170   -3.1600    6.4980 C.2       1 ARG         0.2054
     26 O         -14.5890   -3.7740    5.8280 O.2       1 ARG        -0.3942
     27 CB        -17.8820   -3.2500    6.0680 C.3       1 ARG         0.0145
     28 CG        -17.6640   -3.3600    4.5900 C.2       1 ARG        -0.0027
     29 ND1       -17.7550   -4.5550    3.9100 N.2       1 ARG        -0.3252
     30 CD2       -17.3510   -2.4230    3.6630 C.2       1 ARG         0.0291
     31 CE1       -17.5120   -4.3510    2.6280 C.2       1 ARG         0.0907
     32 NE2       -17.2630   -3.0650    2.4510 N.pl3     1 ARG        -0.2752
     33 N         -15.2280   -1.9090    6.9050 N.am      1 ARG        -0.2612
     34 CA        -14.0440   -1.1530    6.5030 C.3       1 ARG         0.1586
     35 CB        -14.0510    0.2360    7.1340 C.3       1 ARG         0.1184
     36 OG        -15.1510    0.9790    6.6570 O.3       1 ARG        -0.2714
     37 C         -12.7470   -1.8730    6.8440 C.2       1 ARG         0.2065
     38 O         -11.7740   -1.7910    6.0990 O.2       1 ARG        -0.3943
     39 P         -16.0070    1.4940    7.9100 P.3       1 ARG         0.2010
     40 O1P       -17.4350    2.0100    7.3710 O.co2     1 ARG        -0.5537
     41 O2P       -16.2050    0.2950    8.9720 O.co2     1 ARG        -0.5537
     42 O3P       -15.1950    2.6920    8.6130 O.co2     1 ARG        -0.5537
     43 N         -12.7350   -2.5740    7.9710 N.am      1 ARG        -0.2636
     44 CA        -11.5600   -3.3370    8.3680 C.3       1 ARG         0.1317
     45 C         -11.4010   -4.5790    7.4890 C.2       1 ARG         0.2039
     46 O         -10.2810   -5.0060    7.2070 O.2       1 ARG        -0.3944
     47 CB        -11.6300   -3.7310    9.8490 C.3       1 ARG        -0.0034
     48 CG        -11.7260   -2.5590   10.8270 C.3       1 ARG        -0.0024
     49 SD        -10.3160   -1.4230   10.8200 S.3       1 ARG        -0.1639
     50 CE         -8.9820   -2.4530   11.4190 C.3       1 ARG        -0.0181
     51 N         -12.5210   -5.1530    7.0560 N.am      1 ARG        -0.2640
     52 CA        -12.4890   -6.3290    6.1870 C.3       1 ARG         0.1282
     53 C         -11.6990   -6.0430    4.9120 C.2       1 ARG         0.2037
     54 O         -10.9960   -6.9130    4.3980 O.2       1 ARG        -0.3944
     55 CB        -13.9080   -6.7930    5.8420 C.3       1 ARG        -0.0244
     56 N         -11.8270   -4.8190    4.4070 N.am      1 ARG        -0.2616
     57 CA        -11.0730   -4.3810    3.2390 C.3       1 ARG         0.1476
     58 C         -10.2140   -3.1640    3.5420 C.2       1 ARG         0.2063
     59 O         -10.7320   -2.0670    3.7300 O.2       1 ARG        -0.3942
     60 CB        -12.0260   -4.0440    2.0970 C.3       1 ARG         0.0773
     61 CG        -13.4590   -4.4060    2.4110 C.2       1 ARG         0.1780
     62 OD1       -14.1430   -3.6990    3.1510 O.2       1 ARG        -0.3970
     63 ND2       -13.9260   -5.5120    1.8450 N.am      1 ARG        -0.3007
     64 N          -8.9000   -3.3510    3.5560 N.am      1 ARG        -0.2636
     65 CA         -7.9700   -2.2630    3.8340 C.3       1 ARG         0.1312
     66 C          -6.7300   -2.3870    2.9700 C.2       1 ARG         0.2039
     67 O          -6.2720   -3.4920    2.6930 O.2       1 ARG        -0.3944
     68 CB         -7.5270   -2.2890    5.2980 C.3       1 ARG        -0.0101
     69 CG         -8.4710   -1.8080    6.3950 C.3       1 ARG        -0.0425
     70 CD1        -7.7120   -1.7380    7.7060 C.3       1 ARG        -0.0625
     71 CD2        -9.0370   -0.4490    6.0410 C.3       1 ARG        -0.0625
     72 N          -6.1710   -1.2540    2.5600 N.am      1 ARG        -0.2636
     73 CA         -4.8620   -1.2740    1.9330 C.3       1 ARG         0.1325
     74 C          -3.8440   -1.0510    3.0340 C.2       1 ARG         0.2040
     75 O          -3.7070    0.0570    3.5540 O.2       1 ARG        -0.3944
     76 CB         -4.7410   -0.1750    0.8780 C.3       1 ARG        -0.0008
     77 CG         -5.4190   -0.4910   -0.4430 C.3       1 ARG         0.0044
     78 CD         -5.2920    0.6430   -1.4450 C.2       1 ARG         0.0350
     79 OE1        -5.1470    1.8070   -1.0130 O.co2     1 ARG        -0.5690
     80 OE2        -5.3340    0.3710   -2.6640 O.co2     1 ARG        -0.5690
     81 N          -3.1100   -2.1050    3.3710 N.am      1 ARG        -0.2637
     82 CA         -2.1850   -2.0520    4.4930 C.3       1 ARG         0.1312
     83 C          -0.9750   -1.1920    4.1770 C.2       1 ARG         0.2039
     84 O          -0.5590   -1.0860    3.0230 O.2       1 ARG        -0.3944
     85 CB         -1.7310   -3.4580    4.8850 C.3       1 ARG        -0.0101
     86 CG         -2.8210   -4.3870    5.4200 C.3       1 ARG        -0.0425
     87 CD1        -2.2090   -5.6960    5.8710 C.3       1 ARG        -0.0625
     88 CD2        -3.5790   -3.7220    6.5590 C.3       1 ARG        -0.0625
     89 N          -0.4130   -0.5810    5.2110 N.am      1 ARG        -0.2637
     90 CA          0.8060    0.1960    5.0600 C.3       1 ARG         0.1317
     91 C           1.9700   -0.5070    5.7340 C.2       1 ARG         0.2039
     92 O           1.8260   -1.0620    6.8220 O.2       1 ARG        -0.3944
     93 CB          0.6350    1.5890    5.6610 C.3       1 ARG        -0.0034
     94 CG         -0.2950    2.4980    4.8860 C.3       1 ARG        -0.0024
     95 SD         -0.8740    3.8590    5.9130 S.3       1 ARG        -0.1639
     96 CE          0.6810    4.5050    6.5390 C.3       1 ARG        -0.0181
     97 N           3.1220   -0.4890    5.0750 N.am      1 ARG        -0.2637
     98 CA          4.3450   -0.9810    5.6810 C.3       1 ARG         0.1310
     99 C           4.6290   -0.1290    6.9090 C.2       1 ARG         0.2039
    100 O           4.3010    1.0620    6.9390 O.2       1 ARG        -0.3944
    101 CB          5.5140   -0.8890    4.6970 C.3       1 ARG        -0.0122
    102 CG          6.2150   -2.2110    4.4190 C.3       1 ARG        -0.0440
    103 CD          7.7270   -2.0200    4.3570 C.3       1 ARG        -0.0124
    104 CE          8.4370   -3.2500    3.8060 C.3       1 ARG        -0.0354
    105 NZ          8.2160   -3.4160    2.3390 N.4       1 ARG         0.2185
    106 N           5.2310   -0.7380    7.9250 N.am      1 ARG        -0.2637
    107 CA          5.5670   -0.0120    9.1440 C.3       1 ARG         0.1312
    108 C           7.0670   -0.0720    9.4260 C.2       1 ARG         0.2040
    109 O           7.7760   -0.9310    8.8970 O.2       1 ARG        -0.3944
    110 CB          4.7720   -0.5450   10.3430 C.3       1 ARG        -0.0101
    111 CG          3.2530   -0.7070   10.1880 C.3       1 ARG        -0.0425
    112 CD1         2.6060   -0.9820   11.5380 C.3       1 ARG        -0.0625
    113 CD2         2.6180    0.5140    9.5280 C.3       1 ARG        -0.0625
    114 N           7.5430    0.8510   10.2540 N.am      1 ARG        -0.2613
    115 CA          8.9590    0.9160   10.5980 C.3       1 ARG         0.1564
    116 C           9.3480   -0.2210   11.5390 C.2       1 ARG         0.2059
    117 O           8.5320   -0.6470   12.3630 O.2       1 ARG        -0.3943
    118 CB          9.3090    2.2700   11.2440 C.3       1 ARG         0.0924
    119 OG1         9.2290    3.3060   10.2550 O.3       1 ARG        -0.3874
    120 CG2        10.7110    2.2410   11.8330 C.3       1 ARG        -0.0346
    121 N          10.5900   -0.7250   11.4100 N.am      1 ARG        -0.2697
    122 CA         11.0910   -1.7890   12.2830 C.3       1 ARG         0.0916
    123 C          10.8980   -1.4250   13.7510 C.2       1 ARG         0.0598
    124 O          11.8900   -1.1530   14.4390 O.co2     1 ARG        -0.5666
    125 CB         12.5770   -1.8450   11.9370 C.3       1 ARG        -0.0300
    126 H         -20.5859   -6.0092    9.8758 H         1 ARG         0.2015
    127 H         -21.1108   -5.6789   11.4225 H         1 ARG         0.2015
    128 H         -21.3350   -4.5586   10.2095 H         1 ARG         0.2015
    129 H         -19.0220   -4.2403    9.9703 H         1 ARG         0.1098
    130 H         -18.5835   -3.3197   12.2986 H         1 ARG         0.0347
    131 H         -20.2367   -3.9601   12.7149 H         1 ARG         0.0347
    132 H         -20.4184   -1.6401   12.2140 H         1 ARG         0.0302
    133 H         -21.1182   -2.5835   10.8494 H         1 ARG         0.0302
    134 H         -19.8891   -1.2203    9.6026 H         1 ARG         0.0689
    135 H         -18.5181   -2.3350   10.1133 H         1 ARG         0.0689
    136 H         -17.8821    0.0136   10.3588 H         1 ARG         0.2642
    137 H         -20.0648   -1.3291   12.8222 H         1 ARG         0.2615
    138 H         -19.5823   -0.1285   14.0250 H         1 ARG         0.2615
    139 H         -17.3127    1.5103   11.9135 H         1 ARG         0.2615
    140 H         -18.0489    1.4535   13.5185 H         1 ARG         0.2615
    141 H         -16.4179   -6.0990   11.5150 H         1 ARG         0.1884
    142 H         -17.5211   -3.4450   10.7224 H         1 ARG         0.0800
    143 H         -15.2399   -2.6240   11.0932 H         1 ARG         0.0313
    144 H         -14.7430   -4.3228   11.5465 H         1 ARG         0.0313
    145 H         -16.4700   -4.1602   13.3612 H         1 ARG         0.0301
    146 H         -16.5255   -2.3977   13.0128 H         1 ARG         0.0301
    147 H         -14.1103   -2.2730   13.4097 H         1 ARG         0.0689
    148 H         -14.1269   -4.0284   13.8595 H         1 ARG         0.0689
    149 H         -15.1255   -1.7472   15.4389 H         1 ARG         0.2642
    150 H         -14.8493   -5.2457   15.0265 H         1 ARG         0.2615
    151 H         -15.2164   -5.5859   16.7208 H         1 ARG         0.2615
    152 H         -15.5915   -2.1967   17.6091 H         1 ARG         0.2615
    153 H         -15.6342   -3.8699   18.1746 H         1 ARG         0.2615
    154 H         -17.8144   -3.1406    8.6323 H         1 ARG         0.1885
    155 H         -16.6364   -4.8864    6.7037 H         1 ARG         0.0817
    156 H         -17.9655   -2.1899    6.3074 H         1 ARG         0.0420
    157 H         -18.7760   -3.8249    6.3095 H         1 ARG         0.0420
    158 H         -17.1977   -1.3592    3.8444 H         1 ARG         0.0729
    159 H         -17.5161   -5.1132    1.8488 H         1 ARG         0.1199
    160 H         -17.0415   -2.6212    1.5597 H         1 ARG         0.2361
    161 H         -15.9221   -1.4686    7.5090 H         1 ARG         0.1884
    162 H         -14.0882   -1.0579    5.4181 H         1 ARG         0.0827
    163 H         -13.1284    0.7534    6.8707 H         1 ARG         0.0662
    164 H         -14.1285    0.1369    8.2167 H         1 ARG         0.0662
    165 H         -13.5618   -2.5783    8.5683 H         1 ARG         0.1883
    166 H         -10.6857   -2.7009    8.2300 H         1 ARG         0.0800
    167 H         -10.7031   -4.2567   10.0785 H         1 ARG         0.0320
    168 H         -12.5382   -4.3205    9.9748 H         1 ARG         0.0320
    169 H         -11.7722   -2.9911   11.8266 H         1 ARG         0.0378
    170 H         -12.5970   -1.9755   10.5286 H         1 ARG         0.0378
    171 H          -9.2261   -2.8176   12.4168 H         1 ARG         0.0340
    172 H          -8.8468   -3.2987   10.7448 H         1 ARG         0.0340
    173 H          -8.0631   -1.8682   11.4592 H         1 ARG         0.0340
    174 H         -13.4214   -4.7643    7.3363 H         1 ARG         0.1883
    175 H         -11.9877   -7.1306    6.7295 H         1 ARG         0.0797
    176 H         -14.4383   -7.0488    6.7593 H         1 ARG         0.0277
    177 H         -14.4362   -5.9905    5.3272 H         1 ARG         0.0277
    178 H         -13.8553   -7.6686    5.1950 H         1 ARG         0.0277
    179 H         -12.4731   -4.1665    4.8511 H         1 ARG         0.1885
    180 H         -10.4159   -5.2020    2.9522 H         1 ARG         0.0826
    181 H         -11.7186   -4.6179    1.2228 H         1 ARG         0.0551
    182 H         -11.9808   -2.9681    1.9285 H         1 ARG         0.0551
    183 H         -14.8875   -5.8060    2.0168 H         1 ARG         0.1814
    184 H         -13.3234   -6.0679    1.2382 H         1 ARG         0.1814
    185 H          -8.5302   -4.2826    3.3668 H         1 ARG         0.1883
    186 H          -8.4888   -1.3293    3.6168 H         1 ARG         0.0800
    187 H          -6.6882   -1.5941    5.3391 H         1 ARG         0.0315
    188 H          -7.3754   -3.3462    5.5160 H         1 ARG         0.0315
    189 H          -9.3011   -2.5075    6.4936 H         1 ARG         0.0298
    190 H          -7.3308   -2.7279    7.9570 H         1 ARG         0.0232
    191 H          -6.8797   -1.0414    7.6057 H         1 ARG         0.0232
    192 H          -8.3819   -1.3946    8.4943 H         1 ARG         0.0232
    193 H          -8.2214    0.2660    5.9332 H         1 ARG         0.0232
    194 H          -9.5868   -0.5191    5.1025 H         1 ARG         0.0232
    195 H          -9.7088   -0.1190    6.8334 H         1 ARG         0.0232
    196 H          -6.6621   -0.3689    2.6859 H         1 ARG         0.1883
    197 H          -4.6986   -2.2256    1.4271 H         1 ARG         0.0801
    198 H          -3.6786   -0.0500    0.6688 H         1 ARG         0.0330
    199 H          -5.2303    0.7107    1.2832 H         1 ARG         0.0330
    200 H          -6.4793   -0.6513   -0.2479 H         1 ARG         0.0433
    201 H          -4.9366   -1.3715   -0.8674 H         1 ARG         0.0433
    202 H          -3.1962   -2.9676    2.8335 H         1 ARG         0.1883
    203 H          -2.7164   -1.6005    5.3307 H         1 ARG         0.0800
    204 H          -1.0100   -3.3336    5.6930 H         1 ARG         0.0315
    205 H          -1.3511   -3.9227    3.9751 H         1 ARG         0.0315
    206 H          -3.5318   -4.5938    4.6199 H         1 ARG         0.0298
    207 H          -1.7123   -6.1735    5.0264 H         1 ARG         0.0232
    208 H          -1.4820   -5.5030    6.6599 H         1 ARG         0.0232
    209 H          -2.9935   -6.3508    6.2504 H         1 ARG         0.0232
    210 H          -2.8859   -3.4875    7.3669 H         1 ARG         0.0232
    211 H          -4.0423   -2.8038    6.1981 H         1 ARG         0.0232
    212 H          -4.3500   -4.3999    6.9253 H         1 ARG         0.0232
    213 H          -0.8452   -0.6579    6.1317 H         1 ARG         0.1883
    214 H           1.0139    0.2926    3.9944 H         1 ARG         0.0800
    215 H           1.6177    2.0605    5.6574 H         1 ARG         0.0320
    216 H           0.1998    1.4575    6.6517 H         1 ARG         0.0320
    217 H          -1.1570    1.9174    4.5574 H         1 ARG         0.0378
    218 H           0.2478    2.9092    4.0349 H         1 ARG         0.0378
    219 H           1.1971    3.7259    7.1000 H         1 ARG         0.0340
    220 H           1.3029    4.8251    5.7030 H         1 ARG         0.0340
    221 H           0.4832    5.3546    7.1925 H         1 ARG         0.0340
    222 H           3.1480   -0.1220    4.1237 H         1 ARG         0.1883
    223 H           4.2277   -2.0287    5.9577 H         1 ARG         0.0800
    224 H           6.2539   -0.2248    5.1437 H         1 ARG         0.0312
    225 H           5.1045   -0.5409    3.7487 H         1 ARG         0.0312
    226 H           5.8699   -2.5968    3.4597 H         1 ARG         0.0269
    227 H           5.9816   -2.9085    5.2235 H         1 ARG         0.0269
    228 H           8.0894   -1.8430    5.3696 H         1 ARG         0.0317
    229 H           7.9371   -1.1804    3.6943 H         1 ARG         0.0317
    230 H           8.0366   -4.1287    4.3117 H         1 ARG         0.0813
    231 H           9.5068   -3.1302    3.9772 H         1 ARG         0.0813
    232 H           8.7076   -4.2487    2.0144 H         1 ARG         0.1994
    233 H           7.2176   -3.5162    2.1560 H         1 ARG         0.1994
    234 H           8.5723   -2.5962    1.8478 H         1 ARG         0.1994
    235 H           5.4617   -1.7288    7.8510 H         1 ARG         0.1883
    236 H           5.2917    1.0314    8.9905 H         1 ARG         0.0800
    237 H           4.9043    0.1974   11.1300 H         1 ARG         0.0315
    238 H           5.1532   -1.5511   10.5178 H         1 ARG         0.0315
    239 H           3.0784   -1.5610    9.5335 H         1 ARG         0.0298
    240 H           3.0196   -1.8990   11.9576 H         1 ARG         0.0232
    241 H           2.8071   -0.1494   12.2122 H         1 ARG         0.0232
    242 H           1.5296   -1.0938   11.4076 H         1 ARG         0.0232
    243 H           2.8084    1.3961   10.1394 H         1 ARG         0.0232
    244 H           3.0507    0.6564    8.5378 H         1 ARG         0.0232
    245 H           1.5430    0.3584    9.4372 H         1 ARG         0.0232
    246 H           6.9015    1.5323   10.6600 H         1 ARG         0.1884
    247 H           9.5246    0.8125    9.6720 H         1 ARG         0.0826
    248 H           8.5982    2.4656   12.0469 H         1 ARG         0.0639
    249 H           9.4472    4.1494   10.6583 H         1 ARG         0.2101
    250 H          10.7680    1.4627   12.5940 H         1 ARG         0.0257
    251 H          11.4316    2.0314   11.0425 H         1 ARG         0.0257
    252 H          10.9347    3.2082   12.2832 H         1 ARG         0.0257
    253 H          11.2007   -0.3544   10.6819 H         1 ARG         0.1875
    254 H          10.5750   -2.7384   12.1397 H         1 ARG         0.0723
    255 O           9.7442   -1.4014   14.2567 O.co2     1 ARG        -0.5666
    256 H          12.6938   -2.0803   10.8791 H         1 ARG         0.0270
    257 H          13.0346   -0.8785   12.1482 H         1 ARG         0.0270
    258 H          13.0597   -2.6160   12.5375 H         1 ARG         0.0270
@<TRIPOS>BOND
     1    1    2 1  
     2    2    3 1  
     3    2    5 1  
     4    3    4 2  
     5    3   12 am 
     6    5    6 1  
     7    6    7 1  
     8    7    8 1  
     9    8    9 ar 
    10    9   10 ar 
    11    9   11 ar 
    12   12   13 1  
    13   13   14 1  
    14   13   16 1  
    15   14   15 2  
    16   14   23 am 
    17   16   17 1  
    18   17   18 1  
    19   18   19 1  
    20   19   20 ar 
    21   20   21 ar 
    22   20   22 ar 
    23   23   24 1  
    24   24   25 1  
    25   24   27 1  
    26   25   26 2  
    27   25   33 am 
    28   27   28 1  
    29   28   29 1  
    30   28   30 2  
    31   29   31 2  
    32   30   32 1  
    33   31   32 1  
    34   33   34 1  
    35   34   35 1  
    36   34   37 1  
    37   35   36 1  
    38   36   39 1  
    39   37   38 2  
    40   37   43 am 
    41   39   40 ar 
    42   39   41 ar 
    43   39   42 ar 
    44   43   44 1  
    45   44   45 1  
    46   44   47 1  
    47   45   46 2  
    48   45   51 am 
    49   47   48 1  
    50   48   49 1  
    51   49   50 1  
    52   51   52 1  
    53   52   53 1  
    54   52   55 1  
    55   53   54 2  
    56   53   56 am 
    57   56   57 1  
    58   57   58 1  
    59   57   60 1  
    60   58   59 2  
    61   58   64 am 
    62   60   61 1  
    63   61   62 2  
    64   61   63 am 
    65   64   65 1  
    66   65   66 1  
    67   65   68 1  
    68   66   67 2  
    69   66   72 am 
    70   68   69 1  
    71   69   70 1  
    72   69   71 1  
    73   72   73 1  
    74   73   74 1  
    75   73   76 1  
    76   74   75 2  
    77   74   81 am 
    78   76   77 1  
    79   77   78 1  
    80   78   79 ar 
    81   78   80 ar 
    82   81   82 1  
    83   82   83 1  
    84   82   85 1  
    85   83   84 2  
    86   83   89 am 
    87   85   86 1  
    88   86   87 1  
    89   86   88 1  
    90   89   90 1  
    91   90   91 1  
    92   90   93 1  
    93   91   92 2  
    94   91   97 am 
    95   93   94 1  
    96   94   95 1  
    97   95   96 1  
    98   97   98 1  
    99   98   99 1  
   100   98  101 1  
   101   99  100 2  
   102   99  106 am 
   103  101  102 1  
   104  102  103 1  
   105  103  104 1  
   106  104  105 1  
   107  106  107 1  
   108  107  108 1  
   109  107  110 1  
   110  108  109 2  
   111  108  114 am 
   112  110  111 1  
   113  111  112 1  
   114  111  113 1  
   115  114  115 1  
   116  115  116 1  
   117  115  118 1  
   118  116  117 2  
   119  116  121 am 
   120  118  119 1  
   121  118  120 1  
   122  121  122 1  
   123  122  123 1  
   124  122  125 1  
   125  123  124 ar 
   126    1  126 1  
   127    1  127 1  
   128    1  128 1  
   129    2  129 1  
   130    5  130 1  
   131    5  131 1  
   132    6  132 1  
   133    6  133 1  
   134    7  134 1  
   135    7  135 1  
   136    8  136 1  
   137   10  137 1  
   138   10  138 1  
   139   11  139 1  
   140   11  140 1  
   141   12  141 1  
   142   13  142 1  
   143   16  143 1  
   144   16  144 1  
   145   17  145 1  
   146   17  146 1  
   147   18  147 1  
   148   18  148 1  
   149   19  149 1  
   150   21  150 1  
   151   21  151 1  
   152   22  152 1  
   153   22  153 1  
   154   23  154 1  
   155   24  155 1  
   156   27  156 1  
   157   27  157 1  
   158   30  158 1  
   159   31  159 1  
   160   32  160 1  
   161   33  161 1  
   162   34  162 1  
   163   35  163 1  
   164   35  164 1  
   165   43  165 1  
   166   44  166 1  
   167   47  167 1  
   168   47  168 1  
   169   48  169 1  
   170   48  170 1  
   171   50  171 1  
   172   50  172 1  
   173   50  173 1  
   174   51  174 1  
   175   52  175 1  
   176   55  176 1  
   177   55  177 1  
   178   55  178 1  
   179   56  179 1  
   180   57  180 1  
   181   60  181 1  
   182   60  182 1  
   183   63  183 1  
   184   63  184 1  
   185   64  185 1  
   186   65  186 1  
   187   68  187 1  
   188   68  188 1  
   189   69  189 1  
   190   70  190 1  
   191   70  191 1  
   192   70  192 1  
   193   71  193 1  
   194   71  194 1  
   195   71  195 1  
   196   72  196 1  
   197   73  197 1  
   198   76  198 1  
   199   76  199 1  
   200   77  200 1  
   201   77  201 1  
   202   81  202 1  
   203   82  203 1  
   204   85  204 1  
   205   85  205 1  
   206   86  206 1  
   207   87  207 1  
   208   87  208 1  
   209   87  209 1  
   210   88  210 1  
   211   88  211 1  
   212   88  212 1  
   213   89  213 1  
   214   90  214 1  
   215   93  215 1  
   216   93  216 1  
   217   94  217 1  
   218   94  218 1  
   219   96  219 1  
   220   96  220 1  
   221   96  221 1  
   222   97  222 1  
   223   98  223 1  
   224  101  224 1  
   225  101  225 1  
   226  102  226 1  
   227  102  227 1  
   228  103  228 1  
   229  103  229 1  
   230  104  230 1  
   231  104  231 1  
   232  105  232 1  
   233  105  233 1  
   234  105  234 1  
   235  106  235 1  
   236  107  236 1  
   237  110  237 1  
   238  110  238 1  
   239  111  239 1  
   240  112  240 1  
   241  112  241 1  
   242  112  242 1  
   243  113  243 1  
   244  113  244 1  
   245  113  245 1  
   246  114  246 1  
   247  115  247 1  
   248  118  248 1  
   249  119  249 1  
   250  120  250 1  
   251  120  251 1  
   252  120  252 1  
   253  121  253 1  
   254  122  254 1  
   255  123  255 ar 
   256  125  256 1  
   257  125  257 1  
   258  125  258 1  
@<TRIPOS>SUBSTRUCTURE
     1 ARG         1

