### 
### Created by X-TOOL on Fri Sep 26 17:34:57 2014
### 

@<TRIPOS>MOLECULE
3vjs_ligand
   63    81     1     0     0
SMALL
GAST_HUCK


@<TRIPOS>ATOM
      1 B1         13.1790    5.5700   25.6200 B         1 MOL         1.0000
      2 C1         13.4800    2.7370   25.9090 C.3       1 MOL        -2.5112
      3 O1          9.8570   -2.1580   28.5640 O.3       1 MOL        -0.3886
      4 B2         13.4980    4.8400   24.0760 B         1 MOL         1.0000
      5 C2         12.8540    1.3600   26.2400 C.3       1 MOL        -0.3657
      6 O2         15.3460    7.3480   22.1140 O.3       1 MOL        -0.3811
      7 B3         15.1040    4.1660   24.0250 B         1 MOL         1.0000
      8 C3         11.4960    1.5020   26.9320 C.3       1 MOL        -0.0999
      9 O3         16.7180    8.2440   19.7390 O.3       1 MOL        -0.3894
     10 B4         15.8080    4.4180   25.6240 B         1 MOL         1.0000
     11 C4         11.0470    0.1100   27.3970 C.3       1 MOL        -0.0540
     12 O4         14.5200    4.2630   18.5510 O.3       1 MOL        -0.3949
     13 B5         14.6130    5.2920   26.6150 B         1 MOL         1.0000
     14 C5          9.5910    0.1540   27.8720 C.3       1 MOL        -0.0241
     15 B6         12.4680    4.0080   25.1760 B         1 MOL         1.0000
     16 C6          8.6460   -1.8090   26.5570 C.3       1 MOL        -0.0269
     17 B7         13.6680    3.1310   24.1890 B         1 MOL         1.0000
     18 C7          7.7100   -1.1240   28.8740 C.3       1 MOL        -0.0269
     19 B8         15.1170    2.8380   25.1830 B         1 MOL         1.0000
     20 C8          7.0990   -2.4940   29.2070 C.3       1 MOL        -0.0627
     21 B9         14.8110    3.5440   26.8000 B         1 MOL         1.0000
     22 C9          8.9600   -1.2470   27.9620 C.3       1 MOL         0.0656
     23 B10        13.1720    4.2690   26.7970 B         1 MOL         1.0000
     24 C10         7.6400   -0.9520   25.7810 C.3       1 MOL        -0.0627
     25 C21        14.7770    5.6090   24.9290 C.3       1 MOL        -2.5091
     26 C22        15.2610    6.9970   24.4470 C.3       1 MOL        -0.3415
     27 C23        14.4770    7.4290   23.2170 C.3       1 MOL         0.0011
     28 C24        14.7090    7.9980   21.0500 C.3       1 MOL         0.0735
     29 C25        15.4310    7.6740   19.7520 C.3       1 MOL         0.0806
     30 C26        15.5670    6.1670   19.5520 C.3       1 MOL        -0.0014
     31 C27        14.3460    5.6330   18.8330 C.3       1 MOL         0.0466
     32 H           9.4471   -3.0248   28.6116 H         1 MOL         0.2102
     33 H          13.5277    0.8315   26.9144 H         1 MOL        -0.0324
     34 H          12.7066    0.8181   25.3058 H         1 MOL        -0.0324
     35 H          10.7647    1.9200   26.2402 H         1 MOL         0.0227
     36 H          11.5792    2.1738   27.7864 H         1 MOL         0.0227
     37 H          17.2288    7.8948   20.4730 H         1 MOL         0.2099
     38 H          11.6817   -0.2120   28.2226 H         1 MOL         0.0265
     39 H          11.1292   -0.5879   26.5638 H         1 MOL         0.0265
     40 H          13.7433    3.9300   18.0954 H         1 MOL         0.2094
     41 H           9.0183    0.7358   27.1498 H         1 MOL         0.0293
     42 H           9.5747    0.5956   28.8684 H         1 MOL         0.0293
     43 H           8.2094   -2.7995   26.6853 H         1 MOL         0.0290
     44 H           9.5766   -1.8244   25.9897 H         1 MOL         0.0290
     45 H           8.0161   -0.6526   29.8079 H         1 MOL         0.0290
     46 H           6.9596   -0.5372   28.3443 H         1 MOL         0.0290
     47 H           6.7987   -2.9905   28.2842 H         1 MOL         0.0231
     48 H           7.8389   -3.1041   29.7252 H         1 MOL         0.0231
     49 H           6.2275   -2.3559   29.8470 H         1 MOL         0.0231
     50 H           6.7030   -0.9023   26.3356 H         1 MOL         0.0231
     51 H           8.0424    0.0530   25.6542 H         1 MOL         0.0231
     52 H           7.4616   -1.3994   24.8032 H         1 MOL         0.0231
     53 H          16.3192    6.9372   24.1927 H         1 MOL        -0.0304
     54 H          15.1055    7.7252   25.2430 H         1 MOL        -0.0304
     55 H          13.6115    6.7831   23.0695 H         1 MOL         0.0521
     56 H          14.1073    8.4472   23.3379 H         1 MOL         0.0521
     57 H          14.7295    9.0748   21.2178 H         1 MOL         0.0585
     58 H          13.6750    7.6595   20.9845 H         1 MOL         0.0585
     59 H          14.8320    8.0926   18.9432 H         1 MOL         0.0617
     60 H          15.6545    5.6809   20.5236 H         1 MOL         0.0313
     61 H          16.4555    5.9613   18.9551 H         1 MOL         0.0313
     62 H          13.4689    5.7621   19.4671 H         1 MOL         0.0558
     63 H          14.2097    6.1789   17.8995 H         1 MOL         0.0558
@<TRIPOS>BOND
     1    1   13 1  
     2    1   23 1  
     3   25    1 1  
     4    2    5 1  
     5   17    2 1  
     6   21    2 1  
     7   22    3 1  
     8    4   15 1  
     9    4   17 1  
    10   25    4 1  
    11    5    8 1  
    12    6   27 1  
    13   28    6 1  
    14   17    7 1  
    15   19    7 1  
    16    8   11 1  
    17   29    9 1  
    18   10   19 1  
    19   10   21 1  
    20   25   10 1  
    21   11   14 1  
    22   31   12 1  
    23   23   13 1  
    24   14   22 1  
    25   15   23 1  
    26   22   16 1  
    27   16   24 1  
    28   18   20 1  
    29   22   18 1  
    30   21   19 1  
    31   26   25 1  
    32   27   26 1  
    33   29   28 1  
    34   30   29 1  
    35   30   31 1  
    36   25    7 1  
    37    3   32 1  
    38    5   33 1  
    39    5   34 1  
    40    8   35 1  
    41    8   36 1  
    42    9   37 1  
    43   11   38 1  
    44   11   39 1  
    45   12   40 1  
    46   14   41 1  
    47   14   42 1  
    48   16   43 1  
    49   16   44 1  
    50   18   45 1  
    51   18   46 1  
    52   20   47 1  
    53   20   48 1  
    54   20   49 1  
    55   24   50 1  
    56   24   51 1  
    57   24   52 1  
    58   26   53 1  
    59   26   54 1  
    60   27   55 1  
    61   27   56 1  
    62   28   57 1  
    63   28   58 1  
    64   29   59 1  
    65   30   60 1  
    66   30   61 1  
    67   31   62 1  
    68   31   63 1  
    69   25   13 1  
    70   15    1 1  
    71   15    2 1  
    72   23    2 1  
    73   23   21 1  
    74   19    2 1  
    75   10   13 1  
    76   10    7 1  
    77    4    7 1  
    78    4    1 1  
    79   19   17 1  
    80   17   15 1  
    81   21   13 1  
@<TRIPOS>SUBSTRUCTURE
     1 MOL         1

