### 
### Created by X-TOOL on Fri Sep 26 17:35:02 2014
### 

@<TRIPOS>MOLECULE
3zjc_ligand
   46    48     1     0     0
SMALL
GAST_HUCK


@<TRIPOS>ATOM
      1 PG          4.4850   -9.5310    6.1510 P.3       1 GNP         0.1803
      2 O1G         3.4450   -8.6390    5.5240 O.co2     1 GNP        -0.5454
      3 O2G         5.7060   -8.7970    6.6450 O.co2     1 GNP        -0.5454
      4 O3G         4.0170  -10.4080    7.2890 O.co2     1 GNP        -0.5454
      5 N3B         4.9240  -10.5340    5.0150 N.am      1 GNP        -0.1803
      6 PB          5.3450   -9.9360    3.6200 P.3       1 GNP         0.2543
      7 O1B         4.1430   -9.6860    2.7990 O.co2     1 GNP        -0.6257
      8 O2B         6.2210   -8.7870    3.9420 O.co2     1 GNP        -0.6257
      9 O3A         6.1920  -10.9610    2.8880 O.3       1 GNP        -0.1431
     10 PA          7.6860  -10.7410    2.7130 P.3       1 GNP         0.2949
     11 O1A         7.8780   -9.5740    1.8170 O.co2     1 GNP        -0.6129
     12 O2A         8.3420  -10.6860    4.0410 O.co2     1 GNP        -0.6129
     13 O5'         8.2570  -12.0100    1.9580 O.3       1 GNP        -0.2478
     14 C5'         7.7630  -13.3220    2.2240 C.3       1 GNP         0.1128
     15 C4'         8.6040  -14.3320    1.4700 C.3       1 GNP         0.1190
     16 O4'         8.0390  -14.5080    0.1510 O.3       1 GNP        -0.3347
     17 C3'        10.0560  -13.9000    1.2920 C.3       1 GNP         0.1151
     18 O3'        10.9190  -14.7200    2.0700 O.3       1 GNP        -0.3864
     19 C2'        10.3620  -14.0500   -0.1970 C.3       1 GNP         0.1407
     20 O2'        11.4370  -14.9410   -0.4390 O.3       1 GNP        -0.3835
     21 C1'         9.0660  -14.5820   -0.8130 C.3       1 GNP         0.2218
     22 N9          8.6690  -13.8130   -1.9860 N.pl3     1 GNP        -0.0954
     23 C8          8.0330  -12.5960   -2.0300 C.2       1 GNP         0.1855
     24 N7          7.8280  -12.1700   -3.2470 N.2       1 GNP        -0.1929
     25 C5          8.3640  -13.1670   -4.0530 C.2       1 GNP         0.2558
     26 C6          8.4410  -13.2740   -5.4600 C.2       1 GNP         0.2628
     27 O6          8.0350  -12.4750   -6.3110 O.2       1 GNP        -0.3594
     28 N1          9.0660  -14.4520   -5.8570 N.am      1 GNP        -0.2478
     29 C2          9.5560  -15.4090   -4.9980 C.cat     1 GNP         0.2041
     30 N2         10.1290  -16.4860   -5.5550 N.pl3     1 GNP        -0.3327
     31 N3          9.4910  -15.3230   -3.6820 N.pl3     1 GNP        -0.1901
     32 C4          8.8850  -14.1810   -3.2880 C.2       1 GNP         0.3268
     33 H1          4.9347  -11.5209    5.1760 H         1 GNP         0.2132
     34 H2          6.7162  -13.3952    1.8941 H         1 GNP         0.0648
     35 H3          7.8225  -13.5260    3.3033 H         1 GNP         0.0648
     36 H4          8.5814  -15.2864    2.0164 H         1 GNP         0.0651
     37 H5         10.1795  -12.8510    1.5992 H         1 GNP         0.0648
     38 H6         10.8295  -15.6243    1.7930 H         1 GNP         0.2100
     39 H7         10.6125  -13.0694   -0.6279 H         1 GNP         0.0677
     40 H8         11.2189  -15.7994   -0.0953 H         1 GNP         0.2101
     41 H9          9.2164  -15.6307   -1.1089 H         1 GNP         0.1021
     42 H10         7.7310  -12.0436   -1.1414 H         1 GNP         0.1823
     43 H11         9.1665  -14.6152   -6.8385 H         1 GNP         0.1819
     44 H12        10.5122  -17.2324   -4.9575 H         1 GNP         0.1774
     45 H13        10.1859  -16.5668   -6.5803 H         1 GNP         0.1774
     46 H14         9.8566  -16.0372   -3.0362 H         1 GNP         0.2519
@<TRIPOS>BOND
     1    1    2 ar 
     2    1    3 ar 
     3    1    4 ar 
     4    1    5 am 
     5    5    6 1  
     6    6    7 ar 
     7    6    8 ar 
     8    6    9 1  
     9    9   10 1  
    10   10   11 ar 
    11   10   12 ar 
    12   10   13 1  
    13   13   14 1  
    14   14   15 1  
    15   15   16 1  
    16   15   17 1  
    17   16   21 1  
    18   17   18 1  
    19   17   19 1  
    20   19   20 1  
    21   19   21 1  
    22   21   22 1  
    23   22   23 1  
    24   22   32 1  
    25   23   24 2  
    26   24   25 1  
    27   25   26 1  
    28   25   32 2  
    29   26   27 2  
    30   26   28 am 
    31   28   29 ar 
    32   29   30 ar 
    33   29   31 ar 
    34   31   32 1  
    35    5   33 1  
    36   14   34 1  
    37   14   35 1  
    38   15   36 1  
    39   17   37 1  
    40   18   38 1  
    41   19   39 1  
    42   20   40 1  
    43   21   41 1  
    44   23   42 1  
    45   28   43 1  
    46   30   44 1  
    47   30   45 1  
    48   31   46 1  
@<TRIPOS>SUBSTRUCTURE
     1 GNP         1

