### 
### Created by X-TOOL on Fri Sep 26 17:34:50 2014
### 

@<TRIPOS>MOLECULE
3zuk_ligand
   69    71     1     0     0
SMALL
GAST_HUCK


@<TRIPOS>ATOM
      1 C1         59.3280   65.1530    8.0870 C.3       1 RDF         0.2225
      2 O1         59.7850   65.1010    6.7460 O.3       1 RDF        -0.2276
      3 C2         58.0940   64.2980    8.2470 C.3       1 RDF         0.1394
      4 O2         57.6830   64.6100    9.5510 O.3       1 RDF        -0.3837
      5 C3         58.4020   62.8570    8.0800 C.3       1 RDF         0.1144
      6 O3         57.2500   62.1080    8.5290 O.3       1 RDF        -0.3864
      7 C4         59.5460   62.4450    8.8310 C.3       1 RDF         0.1095
      8 O4         59.9090   61.0650    8.6030 O.3       1 RDF        -0.3866
      9 C5         60.7400   63.3090    8.5530 C.3       1 RDF         0.0877
     10 O5         60.3420   64.6880    8.9110 O.3       1 RDF        -0.3388
     11 C6         61.9120   62.9270    9.3390 C.3       1 RDF        -0.0360
     12 P          60.1560   66.4140    5.9120 P.3       1 RDF         0.2076
     13 O1P        61.4100   66.8320    6.7080 O.co2     1 RDF        -0.6075
     14 O2P        60.3240   66.1120    4.3900 O.co2     1 RDF        -0.6075
     15 N          59.0900   67.5600    6.4940 N.am      1 RDF        -0.2546
     16 CA         59.5890   68.9310    6.4960 C.3       1 RDF         0.1246
     17 C          60.0360   69.4310    7.8710 C.2       1 RDF         0.1995
     18 O          61.0470   70.0930    8.0470 O.2       1 RDF        -0.3949
     19 CB         58.5080   69.9210    5.9820 C.3       1 RDF        -0.0136
     20 CG         58.9150   71.4510    6.0520 C.3       1 RDF        -0.0429
     21 CD1        57.7790   72.4930    5.9270 C.3       1 RDF        -0.0625
     22 CD2        60.2080   71.8250    5.3170 C.3       1 RDF        -0.0625
     23 N1         59.1620   69.1200    8.9920 N.am      1 RDF        -0.2688
     24 CA1        59.4520   69.5790   10.3890 C.3       1 RDF         0.0986
     25 C7         59.0250   68.4100   11.2850 C.2       1 RDF         0.0613
     26 O6         58.3740   67.4380   10.7800 O.co2     1 RDF        -0.5665
     27 CB1        58.7790   70.9040   10.7020 C.3       1 RDF        -0.0013
     28 CG1        57.4530   70.8770   11.4460 C.2       1 RDF        -0.0424
     29 CD11       56.2670   70.5080   10.8570 C.2       1 RDF         0.0166
     30 CD21       57.2600   71.1880   12.7610 C.ar      1 RDF        -0.0214
     31 NE1        55.2480   70.5880   11.8490 N.pl3     1 RDF        -0.2891
     32 CE2        55.9120   71.0200   13.0340 C.ar      1 RDF         0.0603
     33 CE3        58.1190   71.6240   13.8120 C.ar      1 RDF        -0.0747
     34 CZ2        55.4120   71.2970   14.3320 C.ar      1 RDF        -0.0443
     35 CZ3        57.6210   71.8890   15.0900 C.ar      1 RDF        -0.0792
     36 CH2        56.2570   71.7240   15.3590 C.ar      1 RDF        -0.0768
     37 OXT        59.2840   68.3780   12.4910 O.co2     1 RDF        -0.5665
     38 H          59.0701   66.1775    8.3554 H         1 RDF         0.1002
     39 H          57.3245   64.4903    7.4993 H         1 RDF         0.0675
     40 H          58.3809   64.3802   10.1689 H         1 RDF         0.2101
     41 H          58.6280   62.6740    7.0295 H         1 RDF         0.0648
     42 H          57.0789   62.3091    9.4520 H         1 RDF         0.2100
     43 H          59.2495   62.5539    9.8742 H         1 RDF         0.0646
     44 H          59.1767   60.4971    8.8536 H         1 RDF         0.2100
     45 H          61.0258   63.2061    7.5062 H         1 RDF         0.0621
     46 H          62.7316   63.6124    9.1234 H         1 RDF         0.0255
     47 H          61.6672   62.9737   10.4001 H         1 RDF         0.0255
     48 H          62.2079   61.9110    9.0775 H         1 RDF         0.0255
     49 H          58.1558   67.3185    6.8248 H         1 RDF         0.1685
     50 H          60.4567   68.9025    5.8369 H         1 RDF         0.0753
     51 H          57.6364   69.7972    6.6246 H         1 RDF         0.0311
     52 H          58.3412   69.6872    4.9305 H         1 RDF         0.0311
     53 H          59.1739   71.5345    7.1075 H         1 RDF         0.0298
     54 H          57.2778   72.3688    4.9670 H         1 RDF         0.0232
     55 H          57.0619   72.3454    6.7345 H         1 RDF         0.0232
     56 H          58.1995   73.4965    5.9917 H         1 RDF         0.0232
     57 H          61.0410   71.2650    5.7420 H         1 RDF         0.0232
     58 H          60.1067   71.5814    4.2594 H         1 RDF         0.0232
     59 H          60.3920   72.8935    5.4290 H         1 RDF         0.0232
     60 H          58.3208   68.5692    8.8207 H         1 RDF         0.1876
     61 H          60.5058   69.8048   10.5522 H         1 RDF         0.0741
     62 H          58.5562   71.3498    9.7326 H         1 RDF         0.0390
     63 H          59.4692   71.4285   11.3627 H         1 RDF         0.0390
     64 H          56.1309   70.2082    9.8179 H         1 RDF         0.0795
     65 H          54.2558   70.3806   11.7357 H         1 RDF         0.2216
     66 H          59.1832   71.7529   13.6149 H         1 RDF         0.0540
     67 H          54.3476   71.1743   14.5320 H         1 RDF         0.0541
     68 H          58.2949   72.2245   15.8783 H         1 RDF         0.0510
     69 H          55.8607   71.9256   16.3542 H         1 RDF         0.0530
@<TRIPOS>BOND
     1    1    2 1  
     2    1    3 1  
     3    1   10 1  
     4    2   12 1  
     5    3    4 1  
     6    3    5 1  
     7    5    6 1  
     8    5    7 1  
     9    7    8 1  
    10    7    9 1  
    11    9   10 1  
    12    9   11 1  
    13   12   13 ar 
    14   12   14 ar 
    15   12   15 am 
    16   15   16 1  
    17   16   17 1  
    18   16   19 1  
    19   17   18 2  
    20   17   23 am 
    21   19   20 1  
    22   20   21 1  
    23   20   22 1  
    24   23   24 1  
    25   24   25 1  
    26   24   27 1  
    27   25   26 ar 
    28   25   37 ar 
    29   27   28 1  
    30   28   29 2  
    31   28   30 1  
    32   29   31 1  
    33   30   32 ar 
    34   30   33 ar 
    35   31   32 1  
    36   32   34 ar 
    37   33   35 ar 
    38   34   36 ar 
    39   35   36 ar 
    40    1   38 1  
    41    3   39 1  
    42    4   40 1  
    43    5   41 1  
    44    6   42 1  
    45    7   43 1  
    46    8   44 1  
    47    9   45 1  
    48   11   46 1  
    49   11   47 1  
    50   11   48 1  
    51   15   49 1  
    52   16   50 1  
    53   19   51 1  
    54   19   52 1  
    55   20   53 1  
    56   21   54 1  
    57   21   55 1  
    58   21   56 1  
    59   22   57 1  
    60   22   58 1  
    61   22   59 1  
    62   23   60 1  
    63   24   61 1  
    64   27   62 1  
    65   27   63 1  
    66   29   64 1  
    67   31   65 1  
    68   33   66 1  
    69   34   67 1  
    70   35   68 1  
    71   36   69 1  
@<TRIPOS>SUBSTRUCTURE
     1 RDF         1

