### 
### Created by X-TOOL on Fri Sep 26 17:34:52 2014
### 

@<TRIPOS>MOLECULE
3zy5_ligand
   62    65     1     0     0
SMALL
GAST_HUCK


@<TRIPOS>ATOM
      1 O1P       -12.8840  -27.0170   16.5360 O.co2     1 GFB        -0.6127
      2 P         -11.3820  -26.8570   16.4820 P.3       1 GFB         0.2972
      3 O3P       -10.8290  -26.2130   15.2370 O.co2     1 GFB        -0.6127
      4 O2P       -10.9670  -26.0100   17.8130 O.3       1 GFB        -0.1318
      5 O5'       -10.6930  -28.2680   16.7470 O.3       1 GFB        -0.2476
      6 P1         -9.5570  -25.8240   18.5830 P.3       1 GFB         0.2997
      7 C5'       -11.1800  -29.0320   17.8500 C.3       1 GFB         0.1128
      8 C4'       -12.0310  -30.1440   17.2410 C.3       1 GFB         0.1190
      9 O4'       -11.9420  -31.3090   18.0720 O.3       1 GFB        -0.3347
     10 C3'       -13.5070  -29.7880   17.1580 C.3       1 GFB         0.1151
     11 C1'       -13.2460  -31.7990   18.3930 C.3       1 GFB         0.2218
     12 O3'       -13.8750  -29.1670   15.9100 O.3       1 GFB        -0.3864
     13 C2'       -14.1770  -31.1320   17.3930 C.3       1 GFB         0.1407
     14 O2'       -14.2360  -31.9100   16.1920 O.3       1 GFB        -0.3835
     15 N9        -13.6950  -31.3030   19.7190 N.pl3     1 GFB        -0.0954
     16 C8        -13.1130  -30.4130   20.5470 C.2       1 GFB         0.1855
     17 C4        -14.8600  -31.6670   20.2490 C.2       1 GFB         0.3268
     18 N7        -13.9190  -30.2250   21.6200 N.2       1 GFB        -0.1929
     19 C5        -15.0050  -31.0100   21.4590 C.2       1 GFB         0.2558
     20 C6        -16.1530  -31.2560   22.1990 C.2       1 GFB         0.2628
     21 O6        -16.3030  -30.6720   23.2960 O.2       1 GFB        -0.3594
     22 N1        -17.0860  -32.1070   21.7070 N.am      1 GFB        -0.2478
     23 C2        -16.9070  -32.7240   20.5190 C.cat     1 GFB         0.2041
     24 N2        -17.7980  -33.5920   19.9970 N.pl3     1 GFB        -0.3327
     25 N3        -15.8090  -32.5100   19.7930 N.pl3     1 GFB        -0.1901
     26 C1         -7.3460  -26.1080   17.1350 C.3       1 GFB         0.2225
     27 C2A        -7.5940  -26.0920   15.6150 C.3       1 GFB         0.1392
     28 O1         -8.5010  -26.6730   17.7310 O.3       1 GFB        -0.2154
     29 O5         -6.3070  -27.0130   17.4950 O.3       1 GFB        -0.3390
     30 C3         -6.3260  -25.8400   14.8040 C.3       1 GFB         0.1144
     31 O2         -8.5360  -25.0690   15.3040 O.3       1 GFB        -0.3837
     32 C4A        -5.2090  -26.7670   15.2890 C.3       1 GFB         0.1095
     33 O3         -6.6000  -26.0380   13.3910 O.3       1 GFB        -0.3864
     34 C5A        -5.0560  -26.8000   16.8160 C.3       1 GFB         0.0876
     35 O4         -5.4950  -28.0970   14.8380 O.3       1 GFB        -0.3866
     36 C6A        -4.1130  -27.9230   17.2270 C.3       1 GFB        -0.0360
     37 O1X        -9.2630  -24.3390   18.5820 O.co2     1 GFB        -0.6127
     38 O2X        -9.6500  -26.4880   19.9290 O.co2     1 GFB        -0.6127
     39 H         -11.7632  -28.4150   18.5335 H         1 GFB         0.0648
     40 H         -10.3612  -29.4387   18.4435 H         1 GFB         0.0648
     41 H         -11.6480  -30.3074   16.2337 H         1 GFB         0.0651
     42 H         -13.8095  -29.0306   17.8811 H         1 GFB         0.0648
     43 H         -13.2436  -32.8889   18.3827 H         1 GFB         0.1021
     44 H         -13.3747  -28.3554   15.7979 H         1 GFB         0.2100
     45 H         -15.2073  -31.0325   17.7346 H         1 GFB         0.0677
     46 H         -14.8249  -31.4842   15.5648 H         1 GFB         0.2101
     47 H         -12.1526  -29.9250   20.3810 H         1 GFB         0.1823
     48 H         -17.9362  -32.2842   22.2420 H         1 GFB         0.1819
     49 H         -18.6557  -33.8094   20.5045 H         1 GFB         0.1774
     50 H         -17.6140  -34.0309   19.0949 H         1 GFB         0.1774
     51 H         -15.6874  -32.9817   18.8969 H         1 GFB         0.2519
     52 H          -7.1015  -25.0923   17.4461 H         1 GFB         0.0999
     53 H          -7.9685  -27.0798   15.3465 H         1 GFB         0.0675
     54 H          -5.9973  -24.8104   14.9450 H         1 GFB         0.0648
     55 H          -9.3410  -25.2132   15.8069 H         1 GFB         0.2101
     56 H          -4.2755  -26.3802   14.8804 H         1 GFB         0.0646
     57 H          -6.8709  -26.9470   13.2430 H         1 GFB         0.2100
     58 H          -4.6613  -25.8250   17.1017 H         1 GFB         0.0621
     59 H          -5.5941  -28.0955   13.8831 H         1 GFB         0.2100
     60 H          -3.9691  -27.8979   18.3072 H         1 GFB         0.0255
     61 H          -4.5443  -28.8817   16.9388 H         1 GFB         0.0255
     62 H          -3.1530  -27.7904   16.7281 H         1 GFB         0.0255
@<TRIPOS>BOND
     1    2    1 ar 
     2    2    3 ar 
     3    4    2 1  
     4    2    5 1  
     5    6    4 1  
     6    5    7 1  
     7   28    6 1  
     8    6   37 ar 
     9    6   38 ar 
    10    7    8 1  
    11    8    9 1  
    12    8   10 1  
    13    9   11 1  
    14   10   12 1  
    15   10   13 1  
    16   13   11 1  
    17   11   15 1  
    18   13   14 1  
    19   15   16 1  
    20   15   17 1  
    21   16   18 2  
    22   17   19 2  
    23   17   25 1  
    24   19   18 1  
    25   19   20 1  
    26   20   21 2  
    27   20   22 am 
    28   23   22 ar 
    29   23   24 ar 
    30   25   23 ar 
    31   26   27 1  
    32   26   28 1  
    33   26   29 1  
    34   27   30 1  
    35   27   31 1  
    36   29   34 1  
    37   30   32 1  
    38   30   33 1  
    39   32   34 1  
    40   32   35 1  
    41   34   36 1  
    42    7   39 1  
    43    7   40 1  
    44    8   41 1  
    45   10   42 1  
    46   11   43 1  
    47   12   44 1  
    48   13   45 1  
    49   14   46 1  
    50   16   47 1  
    51   22   48 1  
    52   24   49 1  
    53   24   50 1  
    54   25   51 1  
    55   26   52 1  
    56   27   53 1  
    57   30   54 1  
    58   31   55 1  
    59   32   56 1  
    60   33   57 1  
    61   34   58 1  
    62   35   59 1  
    63   36   60 1  
    64   36   61 1  
    65   36   62 1  
@<TRIPOS>SUBSTRUCTURE
     1 GFB         1

