### 
### Created by X-TOOL on Fri Sep 26 17:35:01 2014
### 

@<TRIPOS>MOLECULE
4b9h_ligand
   18    18     1     0     0
SMALL
GAST_HUCK


@<TRIPOS>ATOM
      1 I3          4.4700   34.3370   51.9770 I         1 I3C        -0.0531
      2 I2          9.0170   30.4600   52.2000 I         1 I3C        -0.0531
      3 I1          7.5910   33.2100   46.9740 I         1 I3C        -0.0528
      4 O8          5.8940   35.6710   48.6870 O.co2     1 I3C        -0.5584
      5 O9          4.2450   34.2840   48.3770 O.co2     1 I3C        -0.5584
      6 C10         9.2110   31.2600   48.9420 C.2       1 I3C         0.0660
      7 N13         6.5120   32.3020   53.1130 N.pl3     1 I3C        -0.3312
      8 C1          6.1870   33.5880   49.6030 C.ar      1 I3C         0.0259
      9 C6          5.9910   33.3730   51.0150 C.ar      1 I3C         0.0475
     10 C5          6.7890   32.4620   51.7970 C.ar      1 I3C         0.0664
     11 C4          7.8690   31.7620   51.1110 C.ar      1 I3C         0.0475
     12 C3          8.1230   31.9560   49.6810 C.ar      1 I3C         0.0259
     13 C2          7.2740   32.8840   48.9660 C.ar      1 I3C         0.0292
     14 C7          5.3710   34.5560   48.8340 C.2       1 I3C         0.0660
     15 O11         8.9620   30.1620   48.3940 O.co2     1 I3C        -0.5584
     16 O12        10.3280   31.8080   48.8950 O.co2     1 I3C        -0.5584
     17 H1          5.7353   32.8243   53.5430 H         1 I3C         0.1747
     18 H2          7.0780   31.6581   53.6838 H         1 I3C         0.1747
@<TRIPOS>BOND
     1    9    1 1  
     2   11    2 1  
     3   13    3 1  
     4   14    4 ar 
     5   14    5 ar 
     6   12    6 1  
     7    6   15 ar 
     8    6   16 ar 
     9   10    7 1  
    10    9    8 ar 
    11    8   13 ar 
    12    8   14 1  
    13   10    9 ar 
    14   11   10 ar 
    15   11   12 ar 
    16   12   13 ar 
    17    7   17 1  
    18    7   18 1  
@<TRIPOS>SUBSTRUCTURE
     1 I3C         1

