### 
### Created by X-TOOL on Fri Sep 26 17:34:56 2014
### 

@<TRIPOS>MOLECULE
4dgo_ligand
   26    26     1     0     0
SMALL
GAST_HUCK


@<TRIPOS>ATOM
      1 N2         22.3700    6.5380   20.7410 N.1       1 MOL        -0.3516
      2 C12        21.8600    7.4960   20.2980 C.1       1 MOL         0.0849
      3 C10        21.2870    8.5270   19.8420 C.2       1 MOL         0.1428
      4 C11        20.4130    9.3660   20.7470 C.3       1 MOL         0.1286
      5 O14        19.5220   10.1630   19.9690 O.3       1 MOL        -0.3403
      6 N12        19.7080    8.6080   21.7570 N.4       1 MOL         0.2535
      7 C9         21.4930    9.0190   18.5970 C.2       1 MOL        -0.0226
      8 C5         22.3070    8.4200   17.5100 C.ar      1 MOL        -0.0323
      9 C6         23.0420    7.2390   17.6790 C.ar      1 MOL        -0.0291
     10 C1         23.7670    6.7440   16.5890 C.ar      1 MOL         0.1217
     11 O7         24.4780    5.6110   16.7110 O.3       1 MOL        -0.3356
     12 C4         22.2930    9.0980   16.2890 C.ar      1 MOL        -0.0674
     13 C3         22.9910    8.6300   15.1730 C.ar      1 MOL        -0.0341
     14 C2         23.7270    7.4560   15.2870 C.ar      1 MOL         0.1235
     15 O8         24.4220    6.9890   14.2150 O.3       1 MOL        -0.3318
     16 H1         21.0817   10.0546   21.2843 H         1 MOL         0.1353
     17 H2         20.0173   10.6457   19.3178 H         1 MOL         0.2186
     18 H3         19.1499    9.2329   22.3175 H         1 MOL         0.2035
     19 H4         20.3736    8.1324   22.3458 H         1 MOL         0.2035
     20 H5         19.1090    7.9305   21.3117 H         1 MOL         0.2035
     21 H6         21.0043    9.9645   18.3666 H         1 MOL         0.0724
     22 H7         23.0489    6.7211   18.6313 H         1 MOL         0.0537
     23 H8         24.9065    5.4169   15.8856 H         1 MOL         0.2444
     24 H9         21.7227   10.0160   16.2047 H         1 MOL         0.0545
     25 H10        22.9593    9.1725   14.2350 H         1 MOL         0.0532
     26 H11        24.8681    6.1851   14.4540 H         1 MOL         0.2475
@<TRIPOS>BOND
     1    1    2 3  
     2    2    3 1  
     3    3    4 1  
     4    3    7 2  
     5    4    5 1  
     6    4    6 1  
     7    7    8 1  
     8    8    9 ar 
     9    8   12 ar 
    10    9   10 ar 
    11   10   11 1  
    12   10   14 ar 
    13   12   13 ar 
    14   13   14 ar 
    15   14   15 1  
    16    4   16 1  
    17    5   17 1  
    18    6   18 1  
    19    6   19 1  
    20    6   20 1  
    21    7   21 1  
    22    9   22 1  
    23   11   23 1  
    24   12   24 1  
    25   13   25 1  
    26   15   26 1  
@<TRIPOS>SUBSTRUCTURE
     1 MOL         1

