### 
### Created by X-TOOL on Fri Sep 26 17:34:55 2014
### 

@<TRIPOS>MOLECULE
4eg6_ligand
   20    19     1     0     0
SMALL
GAST_HUCK


@<TRIPOS>ATOM
      1 N          -7.5710   15.2560   55.5710 N.4       1 MET         0.2327
      2 CA         -7.5000   15.7070   54.1850 C.3       1 MET         0.0291
      3 C          -8.8700   16.1040   53.6900 C.2       1 MET         0.0844
      4 O          -8.9800   16.6700   52.6100 O.co2     1 MET        -0.5643
      5 CB         -6.9950   14.5930   53.2750 C.3       1 MET         0.0114
      6 CG         -5.7340   13.8940   53.7460 C.3       1 MET         0.0001
      7 SD         -5.3880   12.4700   52.7070 S.3       1 MET        -0.1638
      8 CE         -3.7690   11.9640   53.2880 C.3       1 MET        -0.0181
      9 OXT        -9.8830   15.8430   54.3290 O.co2     1 MET        -0.5643
     10 H          -7.9108   16.0177   56.1582 H         1 MET         0.2010
     11 H          -8.2095   14.4633   55.6371 H         1 MET         0.2010
     12 H          -6.6421   14.9728   55.8832 H         1 MET         0.2010
     13 H          -6.8171   16.5561   54.1576 H         1 MET         0.1024
     14 H          -6.7565   15.0558   52.3174 H         1 MET         0.0347
     15 H          -7.7786   13.8360   53.2435 H         1 MET         0.0347
     16 H          -5.8745   13.5596   54.7739 H         1 MET         0.0379
     17 H          -4.8973   14.5901   53.6870 H         1 MET         0.0379
     18 H          -3.0610   12.7799   53.1429 H         1 MET         0.0340
     19 H          -3.8261   11.7150   54.3476 H         1 MET         0.0340
     20 H          -3.4391   11.0906   52.7255 H         1 MET         0.0340
@<TRIPOS>BOND
     1    1    2 1  
     2    2    3 1  
     3    2    5 1  
     4    3    4 ar 
     5    3    9 ar 
     6    5    6 1  
     7    6    7 1  
     8    7    8 1  
     9    1   10 1  
    10    1   11 1  
    11    1   12 1  
    12    2   13 1  
    13    5   14 1  
    14    5   15 1  
    15    6   16 1  
    16    6   17 1  
    17    8   18 1  
    18    8   19 1  
    19    8   20 1  
@<TRIPOS>SUBSTRUCTURE
     1 MET         1

