### 
### Created by X-TOOL on Fri Sep 26 17:34:55 2014
### 

@<TRIPOS>MOLECULE
4ega_ligand
   20    19     1     0     0
SMALL
GAST_HUCK


@<TRIPOS>ATOM
      1 N          -7.2040  -15.7770  -55.3660 N.4       1 MET         0.2327
      2 CA         -7.3590  -15.9710  -53.9250 C.3       1 MET         0.0291
      3 C          -8.8090  -16.3000  -53.6050 C.2       1 MET         0.0844
      4 O          -9.7100  -16.0270  -54.3950 O.co2     1 MET        -0.5643
      5 CB         -6.9650  -14.7090  -53.1460 C.3       1 MET         0.0114
      6 CG         -5.7350  -13.9810  -53.6390 C.3       1 MET         0.0001
      7 SD         -5.3670  -12.5780  -52.5730 S.3       1 MET        -0.1638
      8 CE         -3.7910  -12.0130  -53.2240 C.3       1 MET        -0.0181
      9 OXT        -9.1110  -16.8160  -52.5330 O.co2     1 MET        -0.5643
     10 H          -7.4731  -16.6314  -55.8538 H         1 MET         0.2010
     11 H          -7.8008  -15.0079  -55.6704 H         1 MET         0.2010
     12 H          -6.2303  -15.5568  -55.5754 H         1 MET         0.2010
     13 H          -6.7040  -16.7903  -53.6284 H         1 MET         0.1024
     14 H          -6.7408  -15.0345  -52.1302 H         1 MET         0.0347
     15 H          -7.7961  -14.0119  -53.2531 H         1 MET         0.0347
     16 H          -5.9180  -13.6197  -54.6509 H         1 MET         0.0379
     17 H          -4.8881  -14.6671  -53.6280 H         1 MET         0.0379
     18 H          -3.0572  -12.8148  -53.1424 H         1 MET         0.0340
     19 H          -3.9109  -11.7336  -54.2707 H         1 MET         0.0340
     20 H          -3.4520  -11.1490  -52.6525 H         1 MET         0.0340
@<TRIPOS>BOND
     1    1    2 1  
     2    2    3 1  
     3    2    5 1  
     4    3    4 ar 
     5    3    9 ar 
     6    5    6 1  
     7    6    7 1  
     8    7    8 1  
     9    1   10 1  
    10    1   11 1  
    11    1   12 1  
    12    2   13 1  
    13    5   14 1  
    14    5   15 1  
    15    6   16 1  
    16    6   17 1  
    17    8   18 1  
    18    8   19 1  
    19    8   20 1  
@<TRIPOS>SUBSTRUCTURE
     1 MET         1

