### 
### Created by X-TOOL on Fri Sep 26 17:34:59 2014
### 

@<TRIPOS>MOLECULE
4gs9_ligand
   59    58     1     0     0
SMALL
GAST_HUCK


@<TRIPOS>ATOM
      1 O1          6.7700  -31.1950   17.6170 O.3       1 PE8        -0.3927
      2 C2          6.8570  -31.7690   16.3620 C.3       1 PE8         0.0676
      3 C3          8.2230  -32.0120   15.8110 C.3       1 PE8         0.0708
      4 O4          8.3940  -32.0520   14.4380 O.3       1 PE8        -0.3752
      5 C5          9.6660  -31.8420   13.9450 C.3       1 PE8         0.0711
      6 C6          9.8230  -31.0290   12.7050 C.3       1 PE8         0.0711
      7 O7         11.0770  -30.7220   12.2090 O.3       1 PE8        -0.3752
      8 C8         11.2170  -29.5880   11.4270 C.3       1 PE8         0.0711
      9 C9         10.6150  -29.5890   10.0600 C.3       1 PE8         0.0711
     10 O10        10.4810  -28.3880    9.3850 O.3       1 PE8        -0.3752
     11 C11         9.4880  -27.4910    9.7500 C.3       1 PE8         0.0711
     12 C12         8.5000  -27.0090    8.7260 C.3       1 PE8         0.0711
     13 O13         7.2490  -27.6040    8.6690 O.3       1 PE8        -0.3752
     14 C14         6.3890  -27.5070    9.7510 C.3       1 PE8         0.0711
     15 C15         5.3920  -28.5990   10.0140 C.3       1 PE8         0.0711
     16 O16         4.8560  -28.7340   11.2870 O.3       1 PE8        -0.3752
     17 C17         5.2220  -29.8200   12.0710 C.3       1 PE8         0.0711
     18 C18         4.5550  -31.1470   11.9280 C.3       1 PE8         0.0711
     19 O19         5.1530  -32.1890   12.6100 O.3       1 PE8        -0.3752
     20 C20         4.5530  -33.4280   12.7210 C.3       1 PE8         0.0711
     21 C21         3.6700  -33.6800   13.9000 C.3       1 PE8         0.0711
     22 O22         2.4100  -34.2060   13.6920 O.3       1 PE8        -0.3752
     23 C23         1.6740  -33.8000   12.6000 C.3       1 PE8         0.0708
     24 C24         0.2090  -34.0880   12.5770 C.3       1 PE8         0.0676
     25 O25        -0.4860  -33.7220   11.4390 O.3       1 PE8        -0.3927
     26 H1          5.8559  -31.0925   17.8544 H         1 PE8         0.2095
     27 H2          6.3307  -31.1066   15.6590 H         1 PE8         0.0580
     28 H3          6.3418  -32.7398   16.4067 H         1 PE8         0.0580
     29 H4          8.5630  -32.9804   16.2068 H         1 PE8         0.0583
     30 H5          8.8725  -31.2110   16.1938 H         1 PE8         0.0583
     31 H6         10.1032  -32.8309   13.7425 H         1 PE8         0.0583
     32 H7         10.2426  -31.3413   14.7367 H         1 PE8         0.0583
     33 H8          9.3179  -30.0702   12.8935 H         1 PE8         0.0583
     34 H9          9.2949  -31.5710   11.9066 H         1 PE8         0.0583
     35 H10        12.2953  -29.4066   11.3073 H         1 PE8         0.0583
     36 H11        10.7639  -28.7528   11.9812 H         1 PE8         0.0583
     37 H12         9.6077  -30.0213   10.1517 H         1 PE8         0.0583
     38 H13        11.2391  -30.2430    9.4334 H         1 PE8         0.0583
     39 H14         9.9953  -26.5992   10.1466 H         1 PE8         0.0583
     40 H15         8.9067  -27.9693   10.5520 H         1 PE8         0.0583
     41 H16         8.9666  -27.1437    7.7390 H         1 PE8         0.0583
     42 H17         8.3392  -25.9369    8.9124 H         1 PE8         0.0583
     43 H18         5.8156  -26.5776    9.6194 H         1 PE8         0.0583
     44 H19         7.0170  -27.4262   10.6505 H         1 PE8         0.0583
     45 H20         5.8864  -29.5511    9.7709 H         1 PE8         0.0583
     46 H21         4.5492  -28.4373    9.3259 H         1 PE8         0.0583
     47 H22         5.0759  -29.5108   13.1165 H         1 PE8         0.0583
     48 H23         6.2928  -29.9897   11.8850 H         1 PE8         0.0583
     49 H24         4.5403  -31.4057   10.8590 H         1 PE8         0.0583
     50 H25         3.5230  -31.0491   12.2958 H         1 PE8         0.0583
     51 H26         5.3566  -34.1786   12.7486 H         1 PE8         0.0583
     52 H27         3.9426  -33.5773   11.8182 H         1 PE8         0.0583
     53 H28         3.5364  -32.7170   14.4145 H         1 PE8         0.0583
     54 H29         4.2055  -34.3776   14.5607 H         1 PE8         0.0583
     55 H30         2.1132  -34.2838   11.7151 H         1 PE8         0.0583
     56 H31         1.7911  -32.7094   12.5176 H         1 PE8         0.0583
     57 H32        -0.2462  -33.5598   13.4277 H         1 PE8         0.0580
     58 H33         0.0822  -35.1727   12.7085 H         1 PE8         0.0580
     59 H34        -1.4018  -33.9536   11.5403 H         1 PE8         0.2095
@<TRIPOS>BOND
     1    1    2 1  
     2    2    3 1  
     3    3    4 1  
     4    4    5 1  
     5    5    6 1  
     6    6    7 1  
     7    7    8 1  
     8    8    9 1  
     9    9   10 1  
    10   10   11 1  
    11   11   12 1  
    12   12   13 1  
    13   13   14 1  
    14   14   15 1  
    15   15   16 1  
    16   16   17 1  
    17   17   18 1  
    18   18   19 1  
    19   19   20 1  
    20   20   21 1  
    21   21   22 1  
    22   22   23 1  
    23   23   24 1  
    24   24   25 1  
    25    1   26 1  
    26    2   27 1  
    27    2   28 1  
    28    3   29 1  
    29    3   30 1  
    30    5   31 1  
    31    5   32 1  
    32    6   33 1  
    33    6   34 1  
    34    8   35 1  
    35    8   36 1  
    36    9   37 1  
    37    9   38 1  
    38   11   39 1  
    39   11   40 1  
    40   12   41 1  
    41   12   42 1  
    42   14   43 1  
    43   14   44 1  
    44   15   45 1  
    45   15   46 1  
    46   17   47 1  
    47   17   48 1  
    48   18   49 1  
    49   18   50 1  
    50   20   51 1  
    51   20   52 1  
    52   21   53 1  
    53   21   54 1  
    54   23   55 1  
    55   23   56 1  
    56   24   57 1  
    57   24   58 1  
    58   25   59 1  
@<TRIPOS>SUBSTRUCTURE
     1 PE8         1

