### 
### Created by X-TOOL on Fri Sep 26 17:34:54 2014
### 

@<TRIPOS>MOLECULE
4hkp_ligand
   34    35     1     0     0
SMALL
GAST_HUCK


@<TRIPOS>ATOM
      1 OAF        26.6220  -13.0530   12.9700 O.co2     1 TKW        -0.5537
      2 PAV        25.5460  -13.1620   14.1510 P.3       1 TKW         0.2008
      3 OAG        26.0690  -14.0670   15.3610 O.co2     1 TKW        -0.5537
      4 OAH        24.1100  -13.6060   13.6570 O.co2     1 TKW        -0.5537
      5 O5'        25.4250  -11.6770   14.7770 O.3       1 TKW        -0.2734
      6 C5'        24.2830  -10.8800   14.4380 C.3       1 TKW         0.1072
      7 C4'        24.4470   -9.6180   15.2680 C.3       1 TKW         0.1182
      8 O4'        23.7950   -8.5240   14.5840 O.3       1 TKW        -0.3362
      9 C3'        23.7530   -9.8350   16.5860 C.3       1 TKW         0.1149
     10 O3'        24.4490   -9.1160   17.6580 O.3       1 TKW        -0.3864
     11 C2'        22.3350   -9.2960   16.3220 C.3       1 TKW         0.1388
     12 O2'        21.8000   -8.8210   17.5380 O.3       1 TKW        -0.3836
     13 C1'        22.5660   -8.1880   15.3010 C.3       1 TKW         0.2049
     14 NAU        21.4990   -7.9620   14.2660 N.am      1 TKW        -0.1608
     15 CAP        20.9790   -8.8630   13.3960 C.2       1 TKW         0.3399
     16 OAB        21.3220  -10.0390   13.3780 O.2       1 TKW        -0.3823
     17 NAK        20.0410   -8.4930   12.5030 N.am      1 TKW        -0.1905
     18 CAN        19.6140   -7.2210   12.4410 C.2       1 TKW         0.1252
     19 NAA        18.7060   -6.7950   11.5850 N.2       1 TKW        -0.4238
     20 CAO        20.1310   -6.2780   13.3000 C.2       1 TKW         0.1476
     21 OAC        19.6710   -5.0150   13.2010 O.3       1 TKW        -0.3536
     22 CAI        21.0750   -6.6500   14.1900 C.2       1 TKW         0.0919
     23 H1         23.3513  -11.4017   14.7020 H         1 TKW         0.0639
     24 H2         24.2785  -10.6423   13.3640 H         1 TKW         0.0639
     25 H3         25.5126   -9.3939   15.4236 H         1 TKW         0.0650
     26 H4         23.7158  -10.9048   16.8392 H         1 TKW         0.0648
     27 H5         23.9984   -9.2637   18.4813 H         1 TKW         0.2100
     28 H6         21.6771  -10.0743   15.9079 H         1 TKW         0.0676
     29 H7         22.3528   -8.1263   17.8759 H         1 TKW         0.2101
     30 H8         22.7007   -7.2462   15.8532 H         1 TKW         0.0999
     31 H9         19.6578   -9.1736   11.8785 H         1 TKW         0.2411
     32 H10        18.4263   -5.8266   11.5873 H         1 TKW         0.0360
     33 H11        19.8496   -4.6815   12.3296 H         1 TKW         0.2322
     34 H12        21.5079   -5.9058   14.8568 H         1 TKW         0.1079
@<TRIPOS>BOND
     1    1    2 ar 
     2    2    3 ar 
     3    2    4 ar 
     4    2    5 1  
     5    5    6 1  
     6    6    7 1  
     7    7    8 1  
     8    7    9 1  
     9    8   13 1  
    10    9   10 1  
    11    9   11 1  
    12   11   12 1  
    13   11   13 1  
    14   13   14 1  
    15   14   15 am 
    16   14   22 1  
    17   15   16 2  
    18   15   17 am 
    19   17   18 1  
    20   18   19 2  
    21   18   20 1  
    22   20   21 1  
    23   20   22 2  
    24    6   23 1  
    25    6   24 1  
    26    7   25 1  
    27    9   26 1  
    28   10   27 1  
    29   11   28 1  
    30   12   29 1  
    31   13   30 1  
    32   17   31 1  
    33   19   32 1  
    34   21   33 1  
    35   22   34 1  
@<TRIPOS>SUBSTRUCTURE
     1 TKW         1

