### 
### Created by X-TOOL on Fri Sep 26 17:34:58 2014
### 

@<TRIPOS>MOLECULE
4iu4_ligand
   29    28     1     0     0
SMALL
GAST_HUCK


@<TRIPOS>ATOM
      1 OXT        13.7710  -23.9470   -7.2620 O.co2     1 S2C        -0.5642
      2 N          11.4330  -22.7310   -6.4150 N.4       1 S2C         0.2333
      3 CA         12.0580  -22.2560   -7.6270 C.3       1 S2C         0.0375
      4 C          13.1600  -23.2400   -8.0250 C.2       1 S2C         0.0852
      5 O          13.3860  -23.2460   -9.3620 O.co2     1 S2C        -0.5642
      6 CB         12.4690  -20.7960   -7.3720 C.3       1 S2C         0.0486
      7 SG         14.1270  -20.3730   -8.0110 S.3       1 S2C        -0.1536
      8 CD         14.2420  -18.6390   -7.4660 C.3       1 S2C        -0.0089
      9 CE         15.5840  -18.0230   -7.8530 C.3       1 S2C        -0.0562
     10 B          15.6790  -16.5140   -7.3680 B         1 S2C         4.0000
     11 O1         15.0130  -16.3660   -5.8330 O.2       1 S2C        -0.3512
     12 O2         17.2680  -16.0170   -7.2820 O.3       1 S2C        -0.4105
     13 O3         14.8320  -15.5080   -8.4020 O.3       1 S2C        -0.4105
     14 H1         10.7037  -22.0917   -6.1402 H         1 S2C         0.2010
     15 H2         12.1224  -22.7893   -5.6820 H         1 S2C         0.2010
     16 H3         11.0365  -23.6435   -6.5767 H         1 S2C         0.2010
     17 H4         11.3173  -22.2530   -8.4403 H         1 S2C         0.1033
     18 H5         12.4602  -20.6180   -6.2865 H         1 S2C         0.0451
     19 H6         11.7325  -20.1388   -7.8574 H         1 S2C         0.0451
     20 H7         14.1318  -18.5992   -6.3723 H         1 S2C         0.0374
     21 H8         13.4334  -18.0610   -7.9373 H         1 S2C         0.0374
     22 H9         16.3827  -18.7661   -7.7122 H         1 S2C         0.0238
     23 H10        15.7821  -17.1470   -7.2179 H         1 S2C         0.0238
     24 H11        15.5541  -17.7120   -8.9077 H         1 S2C         0.0238
     25 H12        15.3598  -15.5027   -6.1996 H         1 S2C         0.3512
     26 H13        17.8644  -16.5942   -7.7443 H         1 S2C         0.2052
     27 H14        16.3730  -16.2863   -7.4519 H         1 S2C         0.2052
     28 H15        15.2842  -15.1507   -7.6468 H         1 S2C         0.2052
     29 H16        15.3792  -16.1652   -8.8156 H         1 S2C         0.2052
@<TRIPOS>BOND
     1    4    1 ar 
     2    3    2 1  
     3    3    4 1  
     4    3    6 1  
     5    4    5 ar 
     6    6    7 1  
     7    7    8 1  
     8    8    9 1  
     9    9   10 1  
    10   10   12 1  
    11   10   13 1  
    12   11   10 2  
    13    2   14 1  
    14    2   15 1  
    15    2   16 1  
    16    3   17 1  
    17    6   18 1  
    18    6   19 1  
    19    8   20 1  
    20    8   21 1  
    21    9   22 1  
    22    9   23 1  
    23    9   24 1  
    24   11   25 1  
    25   12   26 1  
    26   12   27 1  
    27   13   28 1  
    28   13   29 1  
@<TRIPOS>SUBSTRUCTURE
     1 S2C         1

