### 
### Created by X-TOOL on Fri Sep 26 17:34:58 2014
### 

@<TRIPOS>MOLECULE
4jfz_ligand
  144   145     1     0     0
SMALL
GAST_HUCK


@<TRIPOS>ATOM
      1 N          -4.4650   39.0300    4.7560 N.4       1 LYS         0.2379
      2 CA         -4.4750   37.5430    4.5860 C.3       1 LYS         0.0650
      3 C          -3.3490   37.0670    3.6690 C.2       1 LYS         0.2265
      4 O          -3.2710   37.4850    2.5220 O.2       1 LYS        -0.3907
      5 CB         -5.8220   37.0740    4.0130 C.3       1 LYS         0.0080
      6 CG         -5.8530   35.5840    3.6610 C.3       1 LYS        -0.0410
      7 CD         -7.1700   35.1630    2.9950 C.3       1 LYS        -0.0123
      8 CE         -7.3680   35.8160    1.6190 C.3       1 LYS        -0.0354
      9 NZ         -6.2160   35.6180    0.6710 N.4       1 LYS         0.2185
     10 N          -2.4840   36.1880    4.1690 N.am      1 LYS        -0.2637
     11 CA         -1.5100   35.5410    3.3040 C.3       1 LYS         0.1202
     12 C          -0.6970   36.5650    2.5340 C.2       1 LYS         0.2009
     13 O          -0.5430   36.4730    1.3120 O.2       1 LYS        -0.3947
     14 N          -0.1820   37.5520    3.2580 N.am      1 LYS        -0.2618
     15 CA          0.5170   38.6570    2.6220 C.3       1 LYS         0.1476
     16 C           1.9700   38.3350    2.4240 C.2       1 LYS         0.2064
     17 O           2.7980   39.2570    2.4710 O.2       1 LYS        -0.3942
     18 CB          0.3900   39.9650    3.4500 C.3       1 LYS         0.0773
     19 CG          1.0450   39.8760    4.8310 C.2       1 LYS         0.1780
     20 OD1         1.3620   38.7970    5.3170 O.2       1 LYS        -0.3970
     21 ND2         1.2400   41.0270    5.4660 N.am      1 LYS        -0.3007
     22 N           2.3030   37.0500    2.2030 N.am      1 LYS        -0.2620
     23 CA          3.7120   36.7130    2.0700 C.3       1 LYS         0.1390
     24 C           4.0720   35.4980    1.2090 C.2       1 LYS         0.2057
     25 O           3.3210   34.5400    1.0380 O.2       1 LYS        -0.3942
     26 CB          4.3830   36.6340    3.4560 C.3       1 LYS         0.0163
     27 CG          4.0450   35.4170    4.2810 C.ar      1 LYS        -0.0493
     28 CD1         4.7250   34.2280    4.0880 C.ar      1 LYS        -0.0685
     29 CD2         3.0800   35.4720    5.2810 C.ar      1 LYS        -0.0685
     30 CE1         4.4450   33.1110    4.8470 C.ar      1 LYS        -0.0398
     31 CE2         2.7920   34.3700    6.0620 C.ar      1 LYS        -0.0398
     32 CZ          3.4710   33.1940    5.8330 C.ar      1 LYS         0.0805
     33 OH          3.2190   32.1070    6.6060 O.3       1 LYS        -0.3376
     34 N           5.2840   35.5720    0.6840 N.am      1 LYS        -0.2633
     35 CA          5.8140   34.5680   -0.2090 C.3       1 LYS         0.1333
     36 C           6.9110   33.7440    0.4800 C.2       1 LYS         0.2042
     37 O           7.8370   34.2940    1.0810 O.2       1 LYS        -0.3944
     38 CB          6.3790   35.2770   -1.4480 C.3       1 LYS        -0.0063
     39 CG1         7.2670   34.3400   -2.2900 C.3       1 LYS        -0.0584
     40 CG2         5.2170   35.8420   -2.2970 C.3       1 LYS        -0.0584
     41 N           6.8000   32.4220    0.3850 N.am      1 LYS        -0.2635
     42 CA          7.8510   31.5520    0.8910 C.3       1 LYS         0.1333
     43 C           8.6740   30.9260   -0.2390 C.2       1 LYS         0.2042
     44 O           9.9070   30.8510   -0.1740 O.2       1 LYS        -0.3944
     45 CB          7.2300   30.4440    1.7710 C.3       1 LYS        -0.0063
     46 CG1         8.2770   29.4450    2.2460 C.3       1 LYS        -0.0584
     47 CG2         6.5410   31.0840    2.9850 C.3       1 LYS        -0.0584
     48 N           7.9850   30.4450   -1.2680 N.am      1 LYS        -0.2613
     49 CA          8.6400   29.8690   -2.4300 C.3       1 LYS         0.1565
     50 C           8.6000   30.9030   -3.5360 C.2       1 LYS         0.2065
     51 O           7.5360   31.2540   -4.0190 O.2       1 LYS        -0.3943
     52 CB          7.9250   28.5700   -2.8950 C.3       1 LYS         0.0924
     53 OG1         8.0590   27.5730   -1.8790 O.3       1 LYS        -0.3874
     54 CG2         8.5400   28.0170   -4.2080 C.3       1 LYS        -0.0346
     55 N           9.7700   31.3940   -3.9270 N.am      1 LYS        -0.2612
     56 CA          9.8700   32.4090   -4.9330 C.3       1 LYS         0.1586
     57 CB         11.3020   32.7660   -5.1970 C.3       1 LYS         0.1184
     58 OG         12.0400   33.3410   -4.1690 O.3       1 LYS        -0.2714
     59 C           9.2230   31.9560   -6.2110 C.2       1 LYS         0.2061
     60 O           9.2390   30.7770   -6.5780 O.2       1 LYS        -0.3943
     61 P          12.4920   34.8350   -4.3010 P.3       1 LYS         0.2010
     62 O1P        13.3190   35.1950   -3.0830 O.co2     1 LYS        -0.5537
     63 O2P        11.1970   35.6110   -4.4030 O.co2     1 LYS        -0.5537
     64 O3P        13.2560   34.8720   -5.5940 O.co2     1 LYS        -0.5537
     65 N           8.6120   32.9080   -6.8980 N.am      1 LYS        -0.2682
     66 CA          7.9580   32.6140   -8.1850 C.3       1 LYS         0.1004
     67 C           8.2000   33.7490   -9.1740 C.2       1 LYS         0.0615
     68 O           9.1140   34.5630   -8.9980 O.co2     1 LYS        -0.5665
     69 CB          6.4560   32.3830   -7.9920 C.3       1 LYS         0.0090
     70 CG          5.7620   33.5050   -7.2750 C.2       1 LYS        -0.0033
     71 ND1         5.5940   33.5220   -5.9060 N.2       1 LYS        -0.3253
     72 CD2         5.2060   34.6480   -7.7410 C.2       1 LYS         0.0291
     73 CE1         4.9550   34.6310   -5.5610 C.2       1 LYS         0.0907
     74 NE2         4.7120   35.3320   -6.6520 N.pl3     1 LYS        -0.2752
     75 OXT         7.4930   33.8740  -10.1770 O.co2     1 LYS        -0.5665
     76 H1         -5.2199   39.3036    5.3654 H         1 LYS         0.2015
     77 H2         -4.5816   39.4717    3.8575 H         1 LYS         0.2015
     78 H3         -3.5868   39.3162    5.1597 H         1 LYS         0.2015
     79 H4         -4.3344   37.0844    5.5759 H         1 LYS         0.1098
     80 H5         -6.0317   37.6513    3.1005 H         1 LYS         0.0346
     81 H6         -6.6052   37.2712    4.7598 H         1 LYS         0.0346
     82 H7         -5.7230   35.0009    4.5846 H         1 LYS         0.0270
     83 H8         -5.0242   35.3675    2.9709 H         1 LYS         0.0270
     84 H9         -8.0051   35.4562    3.6481 H         1 LYS         0.0317
     85 H10        -7.1685   34.0701    2.8699 H         1 LYS         0.0317
     86 H11        -7.5110   36.8965    1.7672 H         1 LYS         0.0813
     87 H12        -8.2704   35.3863    1.1598 H         1 LYS         0.0813
     88 H13        -6.4199   36.0729   -0.2051 H         1 LYS         0.1994
     89 H14        -6.0763   34.6323    0.5132 H         1 LYS         0.1994
     90 H15        -5.3803   36.0163    1.0699 H         1 LYS         0.1994
     91 H16        -2.5038   35.9711    5.1450 H         1 LYS         0.1882
     92 H17        -2.0386   34.8919    2.5904 H         1 LYS         0.0763
     93 H18        -0.8310   34.9327    3.9196 H         1 LYS         0.0763
     94 H19        -0.2762   37.5350    4.2534 H         1 LYS         0.1885
     95 H20         0.0602   38.8256    1.6357 H         1 LYS         0.0826
     96 H21        -0.6782   40.1902    3.5846 H         1 LYS         0.0551
     97 H22         0.8689   40.7809    2.8888 H         1 LYS         0.0551
     98 H23         1.6639   41.0328    6.3717 H         1 LYS         0.1814
     99 H24         0.9629   41.8873    5.0381 H         1 LYS         0.1814
    100 H25         1.5988   36.3436    2.1319 H         1 LYS         0.1885
    101 H26         4.1655   37.5722    1.5541 H         1 LYS         0.0821
    102 H27         4.0815   37.5238    4.0281 H         1 LYS         0.0453
    103 H28         5.4725   36.6471    3.3047 H         1 LYS         0.0453
    104 H29         5.4932   34.1731    3.3251 H         1 LYS         0.0530
    105 H30         2.5432   36.3983    5.4508 H         1 LYS         0.0530
    106 H31         4.9773   32.1823    4.6763 H         1 LYS         0.0525
    107 H32         2.0430   34.4298    6.8433 H         1 LYS         0.0525
    108 H33         3.7652   31.3838    6.3212 H         1 LYS         0.2458
    109 H34         5.8583   36.3573    0.9155 H         1 LYS         0.1883
    110 H35         5.0024   33.8915   -0.5152 H         1 LYS         0.0802
    111 H36         7.0010   36.1181   -1.1081 H         1 LYS         0.0343
    112 H37         7.6499   34.8859   -3.1649 H         1 LYS         0.0234
    113 H38         6.6736   33.4773   -2.6270 H         1 LYS         0.0234
    114 H39         8.1114   33.9881   -1.6791 H         1 LYS         0.0234
    115 H40         4.5984   36.5065   -1.6758 H         1 LYS         0.0234
    116 H41         4.6003   35.0123   -2.6729 H         1 LYS         0.0234
    117 H42         5.6255   36.4093   -3.1463 H         1 LYS         0.0234
    118 H43         5.9868   32.0222   -0.0380 H         1 LYS         0.1883
    119 H44         8.5277   32.1563    1.5130 H         1 LYS         0.0802
    120 H45         6.4781   29.9050    1.1759 H         1 LYS         0.0343
    121 H46         7.7947   28.6758    2.8671 H         1 LYS         0.0234
    122 H47         9.0412   29.9688    2.8389 H         1 LYS         0.0234
    123 H48         8.7512   28.9688    1.3751 H         1 LYS         0.0234
    124 H49         5.7854   31.8050    2.6398 H         1 LYS         0.0234
    125 H50         7.2902   31.6042    3.5998 H         1 LYS         0.0234
    126 H51         6.0538   30.3013    3.5850 H         1 LYS         0.0234
    127 H52         6.9860   30.4804   -1.2420 H         1 LYS         0.1884
    128 H53         9.6850   29.6322   -2.1810 H         1 LYS         0.0826
    129 H54         6.8596   28.7879   -3.0604 H         1 LYS         0.0639
    130 H55         7.6232   26.7766   -2.1590 H         1 LYS         0.2101
    131 H56         8.0089   27.1003   -4.5040 H         1 LYS         0.0257
    132 H57         9.6039   27.7885   -4.0469 H         1 LYS         0.0257
    133 H58         8.4431   28.7701   -5.0039 H         1 LYS         0.0257
    134 H59        10.6072   31.0445   -3.5063 H         1 LYS         0.1884
    135 H60         9.3459   33.3064   -4.5724 H         1 LYS         0.0827
    136 H61        11.3109   33.4738   -6.0390 H         1 LYS         0.0662
    137 H62        11.8192   31.8406   -5.4904 H         1 LYS         0.0662
    138 H63         8.5940   33.8408   -6.5381 H         1 LYS         0.1877
    139 H64         8.3996   31.6943   -8.5961 H         1 LYS         0.0743
    140 H65         6.3182   31.4602   -7.4093 H         1 LYS         0.0413
    141 H66         5.9924   32.2640   -8.9824 H         1 LYS         0.0413
    142 H67         5.1582   34.9668   -8.7812 H         1 LYS         0.0729
    143 H68         4.6772   34.9157   -4.5472 H         1 LYS         0.1199
    144 H69         4.2313   36.2424   -6.6843 H         1 LYS         0.2361
@<TRIPOS>BOND
     1    1    2 1  
     2    2    3 1  
     3    2    5 1  
     4    3    4 2  
     5    3   10 am 
     6    5    6 1  
     7    6    7 1  
     8    7    8 1  
     9    8    9 1  
    10   10   11 1  
    11   11   12 1  
    12   12   13 2  
    13   12   14 am 
    14   14   15 1  
    15   15   16 1  
    16   15   18 1  
    17   16   17 2  
    18   16   22 am 
    19   18   19 1  
    20   19   20 2  
    21   19   21 am 
    22   22   23 1  
    23   23   24 1  
    24   23   26 1  
    25   24   25 2  
    26   24   34 am 
    27   26   27 1  
    28   27   28 ar 
    29   27   29 ar 
    30   28   30 ar 
    31   29   31 ar 
    32   30   32 ar 
    33   31   32 ar 
    34   32   33 1  
    35   34   35 1  
    36   35   36 1  
    37   35   38 1  
    38   36   37 2  
    39   36   41 am 
    40   38   39 1  
    41   38   40 1  
    42   41   42 1  
    43   42   43 1  
    44   42   45 1  
    45   43   44 2  
    46   43   48 am 
    47   45   46 1  
    48   45   47 1  
    49   48   49 1  
    50   49   50 1  
    51   49   52 1  
    52   50   51 2  
    53   50   55 am 
    54   52   53 1  
    55   52   54 1  
    56   55   56 1  
    57   56   57 1  
    58   56   59 1  
    59   57   58 1  
    60   58   61 1  
    61   59   60 2  
    62   59   65 am 
    63   61   62 ar 
    64   61   63 ar 
    65   61   64 ar 
    66   65   66 1  
    67   66   67 1  
    68   66   69 1  
    69   67   68 ar 
    70   67   75 ar 
    71   69   70 1  
    72   70   71 1  
    73   70   72 2  
    74   71   73 2  
    75   72   74 1  
    76   73   74 1  
    77    1   76 1  
    78    1   77 1  
    79    1   78 1  
    80    2   79 1  
    81    5   80 1  
    82    5   81 1  
    83    6   82 1  
    84    6   83 1  
    85    7   84 1  
    86    7   85 1  
    87    8   86 1  
    88    8   87 1  
    89    9   88 1  
    90    9   89 1  
    91    9   90 1  
    92   10   91 1  
    93   11   92 1  
    94   11   93 1  
    95   14   94 1  
    96   15   95 1  
    97   18   96 1  
    98   18   97 1  
    99   21   98 1  
   100   21   99 1  
   101   22  100 1  
   102   23  101 1  
   103   26  102 1  
   104   26  103 1  
   105   28  104 1  
   106   29  105 1  
   107   30  106 1  
   108   31  107 1  
   109   33  108 1  
   110   34  109 1  
   111   35  110 1  
   112   38  111 1  
   113   39  112 1  
   114   39  113 1  
   115   39  114 1  
   116   40  115 1  
   117   40  116 1  
   118   40  117 1  
   119   41  118 1  
   120   42  119 1  
   121   45  120 1  
   122   46  121 1  
   123   46  122 1  
   124   46  123 1  
   125   47  124 1  
   126   47  125 1  
   127   47  126 1  
   128   48  127 1  
   129   49  128 1  
   130   52  129 1  
   131   53  130 1  
   132   54  131 1  
   133   54  132 1  
   134   54  133 1  
   135   55  134 1  
   136   56  135 1  
   137   57  136 1  
   138   57  137 1  
   139   65  138 1  
   140   66  139 1  
   141   69  140 1  
   142   69  141 1  
   143   72  142 1  
   144   73  143 1  
   145   74  144 1  
@<TRIPOS>SUBSTRUCTURE
     1 LYS         1

