### 
### Created by X-TOOL on Fri Sep 26 17:34:58 2014
### 

@<TRIPOS>MOLECULE
4jg1_ligand
  147   148     1     0     0
SMALL
GAST_HUCK


@<TRIPOS>ATOM
      1 N          -6.5280   36.2070    2.8090 N.4       1 LYS         0.2379
      2 CA         -5.2510   35.8170    2.2210 C.3       1 LYS         0.0650
      3 C          -4.0820   36.5660    2.8660 C.2       1 LYS         0.2265
      4 O          -4.1370   37.7820    3.0600 O.2       1 LYS        -0.3907
      5 CB         -5.2290   36.0780    0.7070 C.3       1 LYS         0.0080
      6 CG         -3.9260   35.6020    0.0470 C.3       1 LYS        -0.0410
      7 CD         -3.3450   36.5900   -0.9760 C.3       1 LYS        -0.0123
      8 CE         -4.2310   36.6950   -2.2270 C.3       1 LYS        -0.0354
      9 NZ         -3.4980   37.1360   -3.4790 N.4       1 LYS         0.2185
     10 N          -3.0130   35.8370    3.1700 N.am      1 LYS        -0.2637
     11 CA         -1.8370   36.4390    3.7680 C.3       1 LYS         0.1202
     12 C          -1.1120   37.4070    2.8470 C.2       1 LYS         0.2009
     13 O          -1.3370   37.4210    1.6340 O.2       1 LYS        -0.3947
     14 N          -0.2230   38.2020    3.4440 N.am      1 LYS        -0.2618
     15 CA          0.4690   39.2930    2.7610 C.3       1 LYS         0.1476
     16 C           1.9320   39.0080    2.4620 C.2       1 LYS         0.2064
     17 O           2.7560   39.9460    2.3680 O.2       1 LYS        -0.3942
     18 CB          0.3860   40.5620    3.6260 C.3       1 LYS         0.0773
     19 CG          1.1180   40.4050    4.9570 C.2       1 LYS         0.1780
     20 OD1         1.6320   39.3440    5.2600 O.2       1 LYS        -0.3970
     21 ND2         1.1750   41.4790    5.7450 N.am      1 LYS        -0.3007
     22 N           2.2920   37.7360    2.2910 N.am      1 LYS        -0.2620
     23 CA          3.6740   37.4170    2.0240 C.3       1 LYS         0.1390
     24 C           3.8590   36.1910    1.1490 C.2       1 LYS         0.2057
     25 O           2.9600   35.3370    1.0260 O.2       1 LYS        -0.3942
     26 CB          4.4340   37.2190    3.3360 C.3       1 LYS         0.0163
     27 CG          4.0920   35.9780    4.1430 C.ar      1 LYS        -0.0493
     28 CD1         4.7100   34.7590    3.8800 C.ar      1 LYS        -0.0685
     29 CD2         3.1930   36.0360    5.2070 C.ar      1 LYS        -0.0685
     30 CE1         4.4340   33.6060    4.6580 C.ar      1 LYS        -0.0398
     31 CE2         2.9110   34.8980    5.9790 C.ar      1 LYS        -0.0398
     32 CZ          3.5380   33.6930    5.6960 C.ar      1 LYS         0.0805
     33 OH          3.2980   32.5800    6.4670 O.3       1 LYS        -0.3376
     34 N           5.0370   36.1340    0.5450 N.am      1 LYS        -0.2633
     35 CA          5.4370   35.0510   -0.3500 C.3       1 LYS         0.1333
     36 C           6.6180   34.2920    0.2510 C.2       1 LYS         0.2042
     37 O           7.5460   34.9240    0.7890 O.2       1 LYS        -0.3944
     38 CB          5.8420   35.6040   -1.7270 C.3       1 LYS        -0.0063
     39 CG1         6.4650   34.5320   -2.6150 C.3       1 LYS        -0.0584
     40 CG2         4.6320   36.2150   -2.4000 C.3       1 LYS        -0.0584
     41 N           6.5810   32.9660    0.1360 N.am      1 LYS        -0.2635
     42 CA          7.6890   32.0940    0.5180 C.3       1 LYS         0.1333
     43 C           8.4000   31.5720   -0.7300 C.2       1 LYS         0.2042
     44 O           9.5940   31.7820   -0.8920 O.2       1 LYS        -0.3944
     45 CB          7.1870   30.9300    1.4070 C.3       1 LYS        -0.0063
     46 CG1         8.3320   29.9880    1.7340 C.3       1 LYS        -0.0584
     47 CG2         6.5530   31.4900    2.6880 C.3       1 LYS        -0.0584
     48 N           7.6620   30.9370   -1.6440 N.am      1 LYS        -0.2613
     49 CA          8.2760   30.3870   -2.8630 C.3       1 LYS         0.1565
     50 C           8.0760   31.3570   -4.0430 C.2       1 LYS         0.2065
     51 O           6.9260   31.6470   -4.3970 O.2       1 LYS        -0.3943
     52 CB          7.6990   28.9990   -3.2030 C.3       1 LYS         0.0924
     53 OG1         7.9690   28.0870   -2.1290 O.3       1 LYS        -0.3874
     54 CG2         8.3210   28.4290   -4.4680 C.3       1 LYS        -0.0346
     55 N           9.1810   31.8700   -4.6010 N.am      1 LYS        -0.2610
     56 CA          9.1770   32.6460   -5.7050 C.3       1 LYS         0.1611
     57 CB         10.1440   33.7800   -5.4660 C.3       1 LYS         0.1262
     58 CG2         9.7670   34.5940   -4.2690 C.3       1 LYS        -0.0298
     59 OG1        11.4020   33.1950   -5.2800 O.3       1 LYS        -0.2685
     60 P          12.7950   33.9100   -5.4780 P.3       1 LYS         0.2014
     61 O1P        13.3810   34.1070   -4.1210 O.co2     1 LYS        -0.5537
     62 O2P        13.6890   32.9570   -6.2420 O.co2     1 LYS        -0.5537
     63 O3P        12.6670   35.1820   -6.2390 O.co2     1 LYS        -0.5537
     64 C           9.3900   31.9910   -6.9080 C.2       1 LYS         0.2064
     65 O           9.6460   30.8020   -6.9520 O.2       1 LYS        -0.3943
     66 N           9.3470   32.7260   -8.0140 N.am      1 LYS        -0.2681
     67 CA          9.5930   32.1040   -9.3150 C.3       1 LYS         0.1004
     68 C          10.0940   33.0900  -10.3630 C.2       1 LYS         0.0615
     69 O          10.0540   34.3090  -10.1690 O.co2     1 LYS        -0.5665
     70 CB          8.3160   31.4290   -9.8200 C.3       1 LYS         0.0090
     71 CG          7.1360   32.3480   -9.8900 C.2       1 LYS        -0.0033
     72 ND1         7.0430   33.3720  -10.8100 N.2       1 LYS        -0.3253
     73 CD2         5.9990   32.3980   -9.1550 C.2       1 LYS         0.0291
     74 CE1         5.8990   34.0120  -10.6400 C.2       1 LYS         0.0907
     75 NE2         5.2480   33.4420   -9.6410 N.pl3     1 LYS        -0.2752
     76 OXT        10.5400   32.6730  -11.4350 O.co2     1 LYS        -0.5665
     77 H1         -7.2735   35.6963    2.3623 H         1 LYS         0.2015
     78 H2         -6.6713   37.1958    2.6758 H         1 LYS         0.2015
     79 H3         -6.5216   35.9983    3.7951 H         1 LYS         0.2015
     80 H4         -5.1127   34.7393    2.3926 H         1 LYS         0.1098
     81 H5         -5.3378   37.1588    0.5337 H         1 LYS         0.0346
     82 H6         -6.0734   35.5456    0.2449 H         1 LYS         0.0346
     83 H7         -4.1264   34.6503   -0.4669 H         1 LYS         0.0270
     84 H8         -3.1771   35.4417    0.8366 H         1 LYS         0.0270
     85 H9         -2.3439   36.2464   -1.2754 H         1 LYS         0.0317
     86 H10        -3.2675   37.5830   -0.5091 H         1 LYS         0.0317
     87 H11        -5.0304   37.4224   -2.0223 H         1 LYS         0.0813
     88 H12        -4.6746   35.7068   -2.4183 H         1 LYS         0.0813
     89 H13        -4.1460   37.1796   -4.2499 H         1 LYS         0.1994
     90 H14        -2.7674   36.4747   -3.6912 H         1 LYS         0.1994
     91 H15        -3.0934   38.0469   -3.3283 H         1 LYS         0.1994
     92 H16        -3.0198   34.8547    2.9828 H         1 LYS         0.1882
     93 H17        -1.1390   35.6358    4.0467 H         1 LYS         0.0763
     94 H18        -2.1472   36.9850    4.6711 H         1 LYS         0.0763
     95 H19        -0.0192   38.0431    4.4100 H         1 LYS         0.1885
     96 H20        -0.0452   39.4752    1.8058 H         1 LYS         0.0826
     97 H21        -0.6723   40.7836    3.8283 H         1 LYS         0.0551
     98 H22         0.8362   41.3984    3.0712 H         1 LYS         0.0551
     99 H23         1.6432   41.4276    6.6271 H         1 LYS         0.1814
    100 H24         0.7496   42.3359    5.4539 H         1 LYS         0.1814
    101 H25         1.6091   37.0077    2.3473 H         1 LYS         0.1885
    102 H26         4.1146   38.2746    1.4945 H         1 LYS         0.0821
    103 H27         4.2356   38.0947    3.9714 H         1 LYS         0.0453
    104 H28         5.5067   37.1753    3.0964 H         1 LYS         0.0453
    105 H29         5.4181   34.6894    3.0622 H         1 LYS         0.0530
    106 H30         2.7041   36.9746    5.4418 H         1 LYS         0.0530
    107 H31         4.9250   32.6654    4.4360 H         1 LYS         0.0525
    108 H32         2.2026   34.9607    6.7971 H         1 LYS         0.0525
    109 H33         3.8062   31.8498    6.1339 H         1 LYS         0.2458
    110 H34         5.6888   36.8739    0.7112 H         1 LYS         0.1883
    111 H35         4.5894   34.3612   -0.4756 H         1 LYS         0.0802
    112 H36         6.5914   36.3943   -1.5727 H         1 LYS         0.0343
    113 H37         6.7375   34.9726   -3.5854 H         1 LYS         0.0234
    114 H38         5.7406   33.7193   -2.7719 H         1 LYS         0.0234
    115 H39         7.3663   34.1310   -2.1284 H         1 LYS         0.0234
    116 H40         4.1976   36.9845   -1.7449 H         1 LYS         0.0234
    117 H41         3.8840   35.4314   -2.5912 H         1 LYS         0.0234
    118 H42         4.9348   36.6732   -3.3530 H         1 LYS         0.0234
    119 H43         5.7515   32.5451   -0.2310 H         1 LYS         0.1883
    120 H44         8.4093   32.6849    1.1028 H         1 LYS         0.0802
    121 H45         6.4203   30.3682    0.8534 H         1 LYS         0.0343
    122 H46         7.9621   29.1666    2.3653 H         1 LYS         0.0234
    123 H47         9.1177   30.5387    2.2720 H         1 LYS         0.0234
    124 H48         8.7457   29.5762    0.8017 H         1 LYS         0.0234
    125 H49         5.7282   32.1678    2.4228 H         1 LYS         0.0234
    126 H50         7.3118   32.0427    3.2614 H         1 LYS         0.0234
    127 H51         6.1646   30.6609    3.2977 H         1 LYS         0.0234
    128 H52         6.6781   30.8338   -1.4980 H         1 LYS         0.1884
    129 H53         9.3556   30.2754   -2.6844 H         1 LYS         0.0826
    130 H54         6.6120   29.0909   -3.3442 H         1 LYS         0.0639
    131 H55         7.6117   27.2331   -2.3428 H         1 LYS         0.2101
    132 H56         7.8855   27.4409   -4.6776 H         1 LYS         0.0257
    133 H57         9.4076   28.3288   -4.3293 H         1 LYS         0.0257
    134 H58         8.1198   29.1049   -5.3122 H         1 LYS         0.0257
    135 H59        10.0616   31.6655   -4.1736 H         1 LYS         0.1884
    136 H60         8.1710   33.0845   -5.7802 H         1 LYS         0.0830
    137 H61        10.1647   34.4371   -6.3479 H         1 LYS         0.0695
    138 H62        10.4965   35.4061   -4.1333 H         1 LYS         0.0260
    139 H63         9.7625   33.9522   -3.3757 H         1 LYS         0.0260
    140 H64         8.7649   35.0225   -4.4178 H         1 LYS         0.0260
    141 H65         9.1465   33.7041   -7.9571 H         1 LYS         0.1877
    142 H66        10.3658   31.3331   -9.1789 H         1 LYS         0.0743
    143 H67         8.0700   30.5993   -9.1409 H         1 LYS         0.0413
    144 H68         8.5079   31.0331  -10.8282 H         1 LYS         0.0413
    145 H69         5.7304   31.7356   -8.3334 H         1 LYS         0.0729
    146 H70         5.5521   34.8636  -11.2235 H         1 LYS         0.1199
    147 H71         4.3267   33.7330   -9.2841 H         1 LYS         0.2361
@<TRIPOS>BOND
     1    1    2 1  
     2    2    3 1  
     3    2    5 1  
     4    3    4 2  
     5    3   10 am 
     6    5    6 1  
     7    6    7 1  
     8    7    8 1  
     9    8    9 1  
    10   10   11 1  
    11   11   12 1  
    12   12   13 2  
    13   12   14 am 
    14   14   15 1  
    15   15   16 1  
    16   15   18 1  
    17   16   17 2  
    18   16   22 am 
    19   18   19 1  
    20   19   20 2  
    21   19   21 am 
    22   22   23 1  
    23   23   24 1  
    24   23   26 1  
    25   24   25 2  
    26   24   34 am 
    27   26   27 1  
    28   27   28 ar 
    29   27   29 ar 
    30   28   30 ar 
    31   29   31 ar 
    32   30   32 ar 
    33   31   32 ar 
    34   32   33 1  
    35   34   35 1  
    36   35   36 1  
    37   35   38 1  
    38   36   37 2  
    39   36   41 am 
    40   38   39 1  
    41   38   40 1  
    42   41   42 1  
    43   42   43 1  
    44   42   45 1  
    45   43   44 2  
    46   43   48 am 
    47   45   46 1  
    48   45   47 1  
    49   48   49 1  
    50   49   50 1  
    51   49   52 1  
    52   50   51 2  
    53   50   55 am 
    54   52   53 1  
    55   52   54 1  
    56   55   56 1  
    57   56   57 1  
    58   56   64 1  
    59   57   58 1  
    60   57   59 1  
    61   59   60 1  
    62   60   61 ar 
    63   60   62 ar 
    64   60   63 ar 
    65   64   65 2  
    66   64   66 am 
    67   66   67 1  
    68   67   68 1  
    69   67   70 1  
    70   68   69 ar 
    71   68   76 ar 
    72   70   71 1  
    73   71   72 1  
    74   71   73 2  
    75   72   74 2  
    76   73   75 1  
    77   74   75 1  
    78    1   77 1  
    79    1   78 1  
    80    1   79 1  
    81    2   80 1  
    82    5   81 1  
    83    5   82 1  
    84    6   83 1  
    85    6   84 1  
    86    7   85 1  
    87    7   86 1  
    88    8   87 1  
    89    8   88 1  
    90    9   89 1  
    91    9   90 1  
    92    9   91 1  
    93   10   92 1  
    94   11   93 1  
    95   11   94 1  
    96   14   95 1  
    97   15   96 1  
    98   18   97 1  
    99   18   98 1  
   100   21   99 1  
   101   21  100 1  
   102   22  101 1  
   103   23  102 1  
   104   26  103 1  
   105   26  104 1  
   106   28  105 1  
   107   29  106 1  
   108   30  107 1  
   109   31  108 1  
   110   33  109 1  
   111   34  110 1  
   112   35  111 1  
   113   38  112 1  
   114   39  113 1  
   115   39  114 1  
   116   39  115 1  
   117   40  116 1  
   118   40  117 1  
   119   40  118 1  
   120   41  119 1  
   121   42  120 1  
   122   45  121 1  
   123   46  122 1  
   124   46  123 1  
   125   46  124 1  
   126   47  125 1  
   127   47  126 1  
   128   47  127 1  
   129   48  128 1  
   130   49  129 1  
   131   52  130 1  
   132   53  131 1  
   133   54  132 1  
   134   54  133 1  
   135   54  134 1  
   136   55  135 1  
   137   56  136 1  
   138   57  137 1  
   139   58  138 1  
   140   58  139 1  
   141   58  140 1  
   142   66  141 1  
   143   67  142 1  
   144   70  143 1  
   145   70  144 1  
   146   73  145 1  
   147   74  146 1  
   148   75  147 1  
@<TRIPOS>SUBSTRUCTURE
     1 LYS         1

