### 
### Created by X-TOOL on Fri Sep 26 17:34:59 2014
### 

@<TRIPOS>MOLECULE
4jjf_ligand
   81    88     1     0     0
SMALL
GAST_HUCK


@<TRIPOS>ATOM
      1 O2        -16.5840  -15.5820  -20.7280 O.3       1 FE9        -0.1441
      2 C1F       -15.7010  -18.6130  -21.8810 C.1       1 FE9         0.2803
      3 O1F       -16.1630  -19.6020  -21.3570 O.2       1 FE9        -0.2803
      4 C2F       -15.3590  -17.8570  -24.4580 C.1       1 FE9         0.2803
      5 O2F       -15.5660  -18.3700  -25.5500 O.2       1 FE9        -0.2803
      6 C8        -13.1090  -17.6790  -22.4180 C.2       1 FE9         0.2101
      7 O18       -12.5310  -18.2250  -23.6130 O.2       1 FE9        -0.3518
      8 C7        -12.2620  -17.0730  -21.3220 C.3       1 FE9         0.0807
      9 C6        -13.2610  -16.3990  -20.4470 C.ar      1 FE9         0.0451
     10 N1        -14.5180  -16.2660  -20.9050 N.ar      1 FE9        -0.2696
     11 C5        -12.8580  -15.8650  -19.2210 C.ar      1 FE9         0.0257
     12 C5M       -11.4400  -15.9660  -18.7210 C.3       1 FE9        -0.0247
     13 C4        -13.7830  -15.2050  -18.4300 C.ar      1 FE9         0.1598
     14 C3        -15.0910  -15.0580  -18.9020 C.ar      1 FE9         0.0660
     15 C3M       -16.1540  -14.3230  -18.1070 C.3       1 FE9        -0.0220
     16 C2        -15.3950  -15.6300  -20.1340 C.ar      1 FE9         0.2278
     17 O3P       -13.3680  -14.6790  -17.2280 O.3       1 FE9        -0.1917
     18 P1        -13.7600  -15.3410  -15.7940 P.3       1 FE9         0.2812
     19 O1P       -14.1220  -14.2780  -14.8080 O.co2     1 FE9        -0.6133
     20 O2P       -14.6380  -16.5680  -16.0230 O.co2     1 FE9        -0.6133
     21 O5'       -12.3210  -15.9720  -15.3940 O.3       1 FE9        -0.2485
     22 C5'       -11.2170  -15.1270  -15.0650 C.3       1 FE9         0.1127
     23 C4'       -10.5180  -15.8820  -13.9520 C.3       1 FE9         0.1189
     24 O4'        -9.2400  -15.3360  -13.7420 O.3       1 FE9        -0.3365
     25 C1'        -9.0260  -15.4480  -12.3780 C.3       1 FE9         0.2001
     26 C2'       -10.3430  -15.1170  -11.7450 C.3       1 FE9         0.1384
     27 O2'       -10.3930  -15.5560  -10.3960 O.3       1 FE9        -0.3836
     28 C3'       -11.2750  -15.9030  -12.6180 C.3       1 FE9         0.1149
     29 O3'       -11.3840  -17.2390  -12.1110 O.3       1 FE9        -0.3864
     30 N9A        -7.8790  -14.5900  -11.9650 N.pl3     1 FE9        -0.1964
     31 C4A        -6.6840  -15.1260  -11.8040 C.ar      1 FE9         0.1482
     32 N3A        -6.1710  -16.3850  -11.9060 N.ar      1 FE9        -0.2607
     33 C2A        -4.8600  -16.6170  -11.6280 C.ar      1 FE9         0.1558
     34 N2A        -4.3810  -17.8760  -11.7150 N.pl3     1 FE9        -0.3110
     35 N1A        -4.0440  -15.6080  -11.2620 N.ar      1 FE9        -0.2439
     36 C6A        -4.5450  -14.3480  -11.1480 C.ar      1 FE9         0.1714
     37 O6A        -3.7440  -13.3390  -10.7930 O.3       1 FE9        -0.3084
     38 C5A        -5.8850  -14.0720  -11.4180 C.ar      1 FE9         0.1035
     39 N7A        -6.6460  -12.9410  -11.4000 N.2       1 FE9        -0.3022
     40 C8A        -7.9250  -13.2590  -11.7340 C.2       1 FE9         0.1081
     41 C1B       -16.4800  -16.0690  -22.1040 C.2       1 FE9         0.3723
     42 N1B       -17.5220  -15.8350  -22.7520 N.2       1 FE9        -0.1838
     43 C2        -17.8640  -16.1640  -24.0600 C.ar      1 FE9         0.0900
     44 C3        -19.0680  -16.8850  -24.1720 C.ar      1 FE9        -0.0142
     45 C4        -19.5430  -17.2810  -25.4210 C.ar      1 FE9        -0.0300
     46 C4A       -18.8090  -16.9470  -26.5610 C.ar      1 FE9         0.0170
     47 C8A       -17.6020  -16.2080  -26.4490 C.ar      1 FE9         0.0327
     48 C1        -17.1250  -15.7930  -25.1950 C.ar      1 FE9         0.0165
     49 C5        -19.3050  -17.3480  -27.8120 C.ar      1 FE9        -0.0250
     50 C6        -18.5740  -17.0230  -28.9580 C.ar      1 FE9        -0.0319
     51 C7        -17.3740  -16.2990  -28.8450 C.ar      1 FE9        -0.0311
     52 C8        -16.8810  -15.8890  -27.6040 C.ar      1 FE9        -0.0214
     53 FE        -14.9870  -17.1060  -22.7460 Fe        1 FE9         0.0000
     54 H1        -11.5459  -16.3467  -21.7339 H         1 FE9         0.0690
     55 H2        -11.7169  -17.8523  -20.7693 H         1 FE9         0.0690
     56 H3        -10.8306  -16.5139  -19.4548 H         1 FE9         0.0399
     57 H4        -11.4271  -16.5020  -17.7605 H         1 FE9         0.0399
     58 H5        -11.0271  -14.9559  -18.5828 H         1 FE9         0.0399
     59 H6        -15.7170  -13.9477  -17.1699 H         1 FE9         0.0395
     60 H7        -16.9806  -15.0111  -17.8763 H         1 FE9         0.0395
     61 H8        -16.5350  -13.4773  -18.6984 H         1 FE9         0.0395
     62 H9        -11.5642  -14.1433  -14.7160 H         1 FE9         0.0647
     63 H10       -10.5506  -14.9949  -15.9301 H         1 FE9         0.0647
     64 H11       -10.4028  -16.9244  -14.2838 H         1 FE9         0.0651
     65 H12        -8.7696  -16.4881  -12.1281 H         1 FE9         0.0994
     66 H13       -10.5570  -14.0389  -11.7897 H         1 FE9         0.0676
     67 H14       -10.2712  -16.4977  -10.3659 H         1 FE9         0.2101
     68 H15       -12.2690  -15.4387  -12.6981 H         1 FE9         0.0648
     69 H16       -11.7235  -17.2132  -11.2241 H         1 FE9         0.2100
     70 H17        -5.0050  -18.6462  -11.9947 H         1 FE9         0.1809
     71 H18        -3.3915  -18.0664  -11.5017 H         1 FE9         0.1809
     72 H19        -4.2467  -12.5336  -10.7601 H         1 FE9         0.2589
     73 H20        -8.7862  -12.5957  -11.8000 H         1 FE9         0.1318
     74 H21       -19.6303  -17.1342  -23.2794 H         1 FE9         0.0673
     75 H22       -20.4680  -17.8397  -25.5062 H         1 FE9         0.0806
     76 H23       -16.2177  -15.2065  -25.1063 H         1 FE9         0.1057
     77 H24       -20.2358  -17.8984  -27.8873 H         1 FE9         0.0806
     78 H25       -18.9323  -17.3292  -29.9342 H         1 FE9         0.0804
     79 H26       -16.8181  -16.0531  -29.7425 H         1 FE9         0.0717
     80 H27       -15.9535  -15.3319  -27.5373 H         1 FE9         0.0871
     81 H28       -14.3185  -15.5963  -23.5860 H         1 FE9         0.0000
@<TRIPOS>BOND
     1   16    1 1  
     2    1   41 1  
     3    2    3 2  
     4    4    5 2  
     5    6    7 2  
     6    6    8 1  
     7    8    9 1  
     8    9   10 ar 
     9    9   11 ar 
    10   10   16 ar 
    11   11   12 1  
    12   11   13 ar 
    13   13   14 ar 
    14   13   17 1  
    15   14   15 1  
    16   16   14 ar 
    17   17   18 1  
    18   18   19 ar 
    19   18   20 ar 
    20   18   21 1  
    21   21   22 1  
    22   22   23 1  
    23   23   24 1  
    24   23   28 1  
    25   24   25 1  
    26   26   25 1  
    27   25   30 1  
    28   26   27 1  
    29   28   26 1  
    30   28   29 1  
    31   30   31 1  
    32   30   40 1  
    33   31   32 ar 
    34   31   38 ar 
    35   32   33 ar 
    36   33   34 1  
    37   33   35 ar 
    38   36   35 ar 
    39   36   37 1  
    40   38   36 ar 
    41   39   38 1  
    42   40   39 2  
    43   41   42 2  
    44   42   43 1  
    45   43   44 ar 
    46   43   48 ar 
    47   44   45 ar 
    48   45   46 ar 
    49   47   46 ar 
    50   46   49 ar 
    51   48   47 ar 
    52   47   52 ar 
    53   49   50 ar 
    54   51   50 ar 
    55   52   51 ar 
    56   53    2 1  
    57   53    4 1  
    58   53    6 1  
    59   53   10 1  
    60   53   41 1  
    61    8   54 1  
    62    8   55 1  
    63   12   56 1  
    64   12   57 1  
    65   12   58 1  
    66   15   59 1  
    67   15   60 1  
    68   15   61 1  
    69   22   62 1  
    70   22   63 1  
    71   23   64 1  
    72   25   65 1  
    73   26   66 1  
    74   27   67 1  
    75   28   68 1  
    76   29   69 1  
    77   34   70 1  
    78   34   71 1  
    79   37   72 1  
    80   40   73 1  
    81   44   74 1  
    82   45   75 1  
    83   48   76 1  
    84   49   77 1  
    85   50   78 1  
    86   51   79 1  
    87   52   80 1  
    88   53   81 1  
@<TRIPOS>SUBSTRUCTURE
     1 FE9         1

