### 
### Created by X-TOOL on Fri Sep 26 17:35:00 2014
### 

@<TRIPOS>MOLECULE
4jjg_ligand
   87    93     1     0     0
SMALL
GAST_HUCK


@<TRIPOS>ATOM
      1 O2         -5.5000  -22.0930  -29.1620 O.3       1 FE9_401    -0.1236
      2 FE         -7.4540  -21.4650  -27.0910 Fe        1 FE9_401     0.0000
      3 C1F        -8.4720  -22.7400  -27.9370 C.1       1 FE9_401     0.2803
      4 O1F        -9.1350  -23.5720  -28.4690 O.2       1 FE9_401    -0.2803
      5 C2F        -7.7410  -22.2040  -25.4160 C.1       1 FE9_401     0.2803
      6 O2F        -7.9540  -22.6780  -24.3300 O.2       1 FE9_401    -0.2803
      7 C8         -8.7670  -19.9990  -27.3370 C.2       1 FE9_401     0.2226
      8 O18        -9.5750  -20.0020  -26.1650 O.2       1 FE9_401    -0.3476
      9 C7         -8.9010  -19.0390  -28.4610 C.3       1 FE9_401     0.1072
     10 C6         -7.8090  -19.5400  -29.3600 C.ar      1 FE9_401     0.1085
     11 N1         -7.1180  -20.5950  -28.9340 N.ar      1 FE9_401    -0.2071
     12 C5         -7.5750  -18.9240  -30.5830 C.ar      1 FE9_401     0.0887
     13 C5M        -8.3940  -17.7290  -31.0230 C.3       1 FE9_401     0.0034
     14 C4         -6.5680  -19.4130  -31.3850 C.ar      1 FE9_401     0.2124
     15 C3         -5.7970  -20.5080  -30.9280 C.ar      1 FE9_401     0.1275
     16 C3M        -4.6720  -21.1140  -31.7360 C.3       1 FE9_401     0.0037
     17 C2         -6.1520  -21.0390  -29.6830 C.ar      1 FE9_401     0.2885
     18 O3P        -6.3270  -18.7950  -32.5840 O.3       1 FE9_401    -0.1801
     19 P1         -6.7210  -19.4020  -34.0190 P.3       1 FE9_401     0.2826
     20 O1P        -5.6010  -19.1140  -35.0200 O.co2     1 FE9_401    -0.6132
     21 O2P        -7.2400  -20.8230  -33.8630 O.co2     1 FE9_401    -0.6132
     22 O5'        -8.0180  -18.5120  -34.2990 O.3       1 FE9_401    -0.2484
     23 C5'        -7.8960  -17.1440  -34.7080 C.3       1 FE9_401     0.1127
     24 C4'        -8.8500  -16.9360  -35.8850 C.3       1 FE9_401     0.1189
     25 O4'        -9.0340  -15.5480  -36.1250 O.3       1 FE9_401    -0.3363
     26 C1'        -9.2710  -15.3790  -37.5180 C.3       1 FE9_401     0.1992
     27 C2'        -8.2940  -16.3370  -38.1520 C.3       1 FE9_401     0.1387
     28 O2'        -8.7820  -16.6680  -39.4520 O.3       1 FE9_401    -0.3836
     29 C3'        -8.3360  -17.5040  -37.1880 C.3       1 FE9_401     0.1150
     30 O3'        -9.3450  -18.4220  -37.5970 O.3       1 FE9_401    -0.3864
     31 N9A        -9.1410  -13.9530  -37.9150 N.pl3     1 FE9_401    -0.2101
     32 C4A       -10.1790  -13.1280  -38.0510 C.2       1 FE9_401     0.1159
     33 N3A       -11.5230  -13.2940  -37.9200 N.2       1 FE9_401    -0.2765
     34 C2A       -12.3910  -12.2950  -38.1530 C.2       1 FE9_401     0.2340
     35 N2A       -13.7240  -12.5540  -37.9980 N.pl3     1 FE9_401    -0.2807
     36 N1A       -11.9370  -11.0620  -38.5090 N.am      1 FE9_401    -0.1839
     37 C6A       -10.5950  -10.8390  -38.6470 C.2       1 FE9_401     0.2135
     38 O6A       -10.1170   -9.6080  -38.9950 O.2       1 FE9_401    -0.4091
     39 C5A        -9.6880  -11.8870  -38.4260 C.2       1 FE9_401     0.0926
     40 N7A        -8.3490  -12.0020  -38.4870 N.2       1 FE9_401    -0.3235
     41 C8A        -8.0190  -13.2670  -38.1690 C.2       1 FE9_401     0.0957
     42 O1         -2.3980  -24.2360  -29.3210 O.2       1 FE9_401    -0.1716
     43 S          -2.8610  -24.0260  -27.9780 S.o2      1 FE9_401    -0.0118
     44 O2         -2.5270  -25.1830  -27.1820 O.2       1 FE9_401    -0.1716
     45 C3         -2.1460  -22.6670  -27.2810 C.3       1 FE9_401     0.0972
     46 C4         -2.1040  -21.3490  -28.0560 C.ar      1 FE9_401    -0.0288
     47 C9         -2.7740  -20.2240  -27.5380 C.ar      1 FE9_401    -0.0653
     48 C8         -2.7500  -18.9920  -28.2070 C.ar      1 FE9_401    -0.0670
     49 C7         -2.0420  -18.8750  -29.4070 C.ar      1 FE9_401    -0.0528
     50 C7M        -2.0180  -17.5600  -30.1500 C.3       1 FE9_401    -0.0343
     51 C6         -1.3590  -19.9890  -29.9210 C.ar      1 FE9_401    -0.0670
     52 C5         -1.3790  -21.2200  -29.2490 C.ar      1 FE9_401    -0.0653
     53 C2         -4.4440  -23.9430  -28.0250 C.3       1 FE9_401     0.1301
     54 N          -5.4420  -23.2830  -27.2890 N.2       1 FE9_401    -0.2553
     55 C1         -6.0020  -22.3560  -27.8980 C.2       1 FE9_401     0.3412
     56 H1         -6.3239  -20.2292  -26.2988 H         1 FE9_401     0.0000
     57 H2         -8.7208  -18.0032  -28.1374 H         1 FE9_401     0.0824
     58 H3         -9.8885  -19.1068  -28.9408 H         1 FE9_401     0.0824
     59 H4         -9.1423  -17.4934  -30.2519 H         1 FE9_401     0.0541
     60 H5         -8.9037  -17.9622  -31.9695 H         1 FE9_401     0.0541
     61 H6         -7.7311  -16.8631  -31.1672 H         1 FE9_401     0.0541
     62 H7         -4.5531  -20.5548  -32.6758 H         1 FE9_401     0.0519
     63 H8         -4.9072  -22.1646  -31.9617 H         1 FE9_401     0.0519
     64 H9         -3.7372  -21.0635  -31.1585 H         1 FE9_401     0.0519
     65 H10        -6.8621  -16.9348  -35.0197 H         1 FE9_401     0.0647
     66 H11        -8.1709  -16.4767  -33.8779 H         1 FE9_401     0.0647
     67 H12        -9.8132  -17.4064  -35.6383 H         1 FE9_401     0.0651
     68 H13       -10.2943  -15.6973  -37.7660 H         1 FE9_401     0.0998
     69 H14        -7.2808  -15.9150  -38.2247 H         1 FE9_401     0.0676
     70 H15        -9.6372  -17.0743  -39.3740 H         1 FE9_401     0.2101
     71 H16        -7.3531  -17.9874  -37.0866 H         1 FE9_401     0.0648
     72 H17        -9.1477  -18.7392  -38.4705 H         1 FE9_401     0.2100
     73 H18       -14.0374  -13.4973  -37.7279 H         1 FE9_401     0.1897
     74 H19       -14.4152  -11.8059  -38.1513 H         1 FE9_401     0.1897
     75 H20       -12.5859  -10.3183  -38.6698 H         1 FE9_401     0.2515
     76 H21        -7.0070  -13.6670  -38.1253 H         1 FE9_401     0.1179
     77 H22        -1.1040  -22.9363  -27.0539 H         1 FE9_401     0.0650
     78 H23        -2.6861  -22.4683  -26.3436 H         1 FE9_401     0.0650
     79 H24        -3.3184  -20.3121  -26.6048 H         1 FE9_401     0.0540
     80 H25        -3.2760  -18.1373  -27.7973 H         1 FE9_401     0.0540
     81 H26        -1.4141  -17.6659  -31.0633 H         1 FE9_401     0.0378
     82 H27        -1.5775  -16.7836  -29.5072 H         1 FE9_401     0.0378
     83 H28        -3.0448  -17.2729  -30.4206 H         1 FE9_401     0.0378
     84 H29        -0.8085  -19.8963  -30.8502 H         1 FE9_401     0.0540
     85 H30        -0.8362  -22.0681  -29.6504 H         1 FE9_401     0.0540
     86 H31        -4.7408  -24.9984  -27.9359 H         1 FE9_401     0.0633
     87 H32        -4.6341  -23.5939  -29.0507 H         1 FE9_401     0.0633
@<TRIPOS>BOND
     1    1   17 1  
     2    3    4 2  
     3    5    6 2  
     4    7    8 2  
     5    9    7 1  
     6   10    9 1  
     7   11   10 ar 
     8   10   12 ar 
     9   17   11 ar 
    10   12   13 1  
    11   14   12 ar 
    12   15   14 ar 
    13   14   18 1  
    14   15   16 1  
    15   17   15 ar 
    16   18   19 1  
    17   19   20 ar 
    18   19   21 ar 
    19   19   22 1  
    20   22   23 1  
    21   23   24 1  
    22   24   25 1  
    23   24   29 1  
    24   25   26 1  
    25   27   26 1  
    26   26   31 1  
    27   27   28 1  
    28   29   27 1  
    29   29   30 1  
    30   31   32 1  
    31   31   41 1  
    32   32   33 1  
    33   32   39 2  
    34   33   34 2  
    35   34   35 1  
    36   34   36 am 
    37   37   36 am 
    38   37   38 2  
    39   39   37 1  
    40   40   39 1  
    41   41   40 2  
    42    2    3 1  
    43    2    5 1  
    44   43   42 2  
    45   43   44 2  
    46   43   45 1  
    47   53   43 1  
    48   45   46 1  
    49   46   47 ar 
    50   46   52 ar 
    51   47   48 ar 
    52   48   49 ar 
    53   49   50 1  
    54   51   49 ar 
    55   52   51 ar 
    56   54   53 1  
    57   55   54 2  
    58   55    1 1  
    59   55    2 1  
    60    2    7 1  
    61    2   11 1  
    62    2   56 1  
    63    9   57 1  
    64    9   58 1  
    65   13   59 1  
    66   13   60 1  
    67   13   61 1  
    68   16   62 1  
    69   16   63 1  
    70   16   64 1  
    71   23   65 1  
    72   23   66 1  
    73   24   67 1  
    74   26   68 1  
    75   27   69 1  
    76   28   70 1  
    77   29   71 1  
    78   30   72 1  
    79   35   73 1  
    80   35   74 1  
    81   36   75 1  
    82   41   76 1  
    83   45   77 1  
    84   45   78 1  
    85   47   79 1  
    86   48   80 1  
    87   50   81 1  
    88   50   82 1  
    89   50   83 1  
    90   51   84 1  
    91   52   85 1  
    92   53   86 1  
    93   53   87 1  
@<TRIPOS>SUBSTRUCTURE
     1 FE9_401      1

