### 
### Created by X-TOOL on Sat Nov 28 16:06:11 2015
### 

@<TRIPOS>MOLECULE
4leg_ligand
   26    26     1     0     0
SMALL
GAST_HUCK


@<TRIPOS>ATOM
      1 C01         5.1930   -0.0540  -18.0800 C.ar      1 MOL        -0.0734
      2 C02         4.6390    1.1990  -18.1620 C.ar      1 MOL        -0.0728
      3 C03         3.3460    1.3520  -18.6250 C.ar      1 MOL        -0.0372
      4 C04         2.5430    0.2650  -19.0290 C.ar      1 MOL         0.0814
      5 C05         3.1090   -1.0580  -18.9500 C.ar      1 MOL         0.0304
      6 C06         4.4270   -1.1510  -18.4710 C.ar      1 MOL        -0.0611
      7 C07         2.3020   -2.3430  -19.3750 C.2       1 MOL         0.0547
      8 O08         1.6380   -2.9350  -18.5050 O.co2     1 MOL        -0.5656
      9 O09         2.3730   -2.7020  -20.5670 O.co2     1 MOL        -0.5656
     10 N10         1.1900    0.4980  -19.5070 N.am      1 MOL        -0.2299
     11 C11         0.8450    1.4200  -20.5220 C.2       1 MOL         0.2175
     12 O12         0.6170    2.5710  -20.3260 O.2       1 MOL        -0.3831
     13 C13         0.7470    0.9260  -22.0300 C.3       1 MOL         0.1098
     14 S14         0.9750   -0.9210  -22.2130 S.3       1 MOL        -0.0108
     15 C15         1.0400   -1.3690  -24.0460 C.2       1 MOL         0.2377
     16 O16         0.8250   -2.4520  -24.4460 O.2       1 MOL        -0.3840
     17 N17         1.3660   -0.2900  -24.8750 N.am      1 MOL        -0.2916
     18 H           6.2061   -0.1879  -17.7184 H         1 MOL         0.0496
     19 H           5.2150    2.0676  -17.8639 H         1 MOL         0.0598
     20 H           2.9304    2.3517  -18.6802 H         1 MOL         0.0511
     21 H           4.8751   -2.1356  -18.4014 H         1 MOL         0.0611
     22 H           0.4515   -0.0308  -19.0887 H         1 MOL         0.2276
     23 H           1.5263    1.4347  -22.6164 H         1 MOL         0.0650
     24 H          -0.2438    1.1971  -22.4236 H         1 MOL         0.0650
     25 H           1.4269   -0.4203  -25.8646 H         1 MOL         0.1823
     26 H           1.5381    0.6115  -24.4779 H         1 MOL         0.1823
@<TRIPOS>BOND
     1    1    2 ar 
     2    1    6 ar 
     3    2    3 ar 
     4    3    4 ar 
     5    4    5 ar 
     6    4   10 1  
     7    5    6 ar 
     8    5    7 1  
     9    7    8 ar 
    10    7    9 ar 
    11   10   11 am 
    12   11   12 2  
    13   11   13 1  
    14   13   14 1  
    15   14   15 1  
    16   15   16 2  
    17   15   17 am 
    18    1   18 1  
    19    2   19 1  
    20    3   20 1  
    21    6   21 1  
    22   10   22 1  
    23   13   23 1  
    24   13   24 1  
    25   17   25 1  
    26   17   26 1  
@<TRIPOS>SUBSTRUCTURE
     1 MOL         1

