### 
### Created by X-TOOL on Fri Sep 26 17:35:02 2014
### 

@<TRIPOS>MOLECULE
4li0_ligand
   41    43     1     0     0
SMALL
GAST_HUCK


@<TRIPOS>ATOM
      1 PB         23.8160   40.2330   42.8690 P.3       1 GDP         0.2069
      2 O1B        24.6730   41.4660   42.9880 O.co2     1 GDP        -0.5891
      3 O2B        24.6210   39.0320   42.4480 O.co2     1 GDP        -0.5891
      4 O3B        22.8180   39.9250   43.9490 O.co2     1 GDP        -0.5891
      5 O3A        22.8500   40.5970   41.6420 O.3       1 GDP        -0.1548
      6 PA         21.5400   41.4980   41.8550 P.3       1 GDP         0.3276
      7 O1A        20.5020   40.5600   42.4350 O.co2     1 GDP        -0.5556
      8 O2A        22.0170   42.7200   42.6040 O.co2     1 GDP        -0.5556
      9 O5'        21.1190   41.9700   40.3560 O.3       1 GDP        -0.2436
     10 C5'        21.4670   43.2690   39.8490 C.3       1 GDP         0.1132
     11 C4'        20.5500   43.6960   38.7110 C.3       1 GDP         0.1190
     12 O4'        20.1290   42.5530   37.9640 O.3       1 GDP        -0.3347
     13 C3'        19.2650   44.3460   39.1870 C.3       1 GDP         0.1151
     14 O3'        18.9020   45.3710   38.2670 O.3       1 GDP        -0.3864
     15 C2'        18.2460   43.2320   39.1300 C.3       1 GDP         0.1407
     16 O2'        16.8900   43.6550   39.0130 O.3       1 GDP        -0.3835
     17 C1'        18.6930   42.5250   37.8710 C.3       1 GDP         0.2218
     18 N9         18.1830   41.1410   37.7910 N.pl3     1 GDP        -0.0954
     19 C8         18.3200   40.2430   38.7750 C.2       1 GDP         0.1855
     20 N7         17.7890   39.0520   38.4280 N.2       1 GDP        -0.1929
     21 C5         17.3080   39.1850   37.2000 C.2       1 GDP         0.2558
     22 C6         16.6240   38.2690   36.2830 C.2       1 GDP         0.2628
     23 O6         16.3810   37.0940   36.6200 O.2       1 GDP        -0.3594
     24 N1         16.2770   38.7570   35.0790 N.am      1 GDP        -0.2478
     25 C2         16.5460   40.0400   34.7290 C.cat     1 GDP         0.2041
     26 N2         16.1370   40.4030   33.5030 N.pl3     1 GDP        -0.3327
     27 N3         17.1800   40.9420   35.5310 N.pl3     1 GDP        -0.1901
     28 C4         17.5690   40.5640   36.7650 C.2       1 GDP         0.3268
     29 H1         22.5030   43.2415   39.4802 H         1 GDP         0.0648
     30 H2         21.3875   44.0027   40.6647 H         1 GDP         0.0648
     31 H3         21.0984   44.3945   38.0619 H         1 GDP         0.0651
     32 H4         19.3650   44.7531   40.2040 H         1 GDP         0.0648
     33 H5         18.0974   45.7846   38.5568 H         1 GDP         0.2100
     34 H6         18.3352   42.5812   40.0123 H         1 GDP         0.0677
     35 H7         16.7846   44.1597   38.2151 H         1 GDP         0.2101
     36 H8         18.3540   43.0777   36.9824 H         1 GDP         0.1021
     37 H9         18.7982   40.4475   39.7318 H         1 GDP         0.1823
     38 H10        15.8098   38.1604   34.4264 H         1 GDP         0.1819
     39 H11        16.3058   41.3618   33.1667 H         1 GDP         0.1774
     40 H12        15.6544   39.7227   32.8987 H         1 GDP         0.1774
     41 H13        17.3594   41.9001   35.1982 H         1 GDP         0.2519
@<TRIPOS>BOND
     1    1    2 ar 
     2    1    3 ar 
     3    1    4 ar 
     4    1    5 1  
     5    5    6 1  
     6    6    7 ar 
     7    6    8 ar 
     8    6    9 1  
     9    9   10 1  
    10   10   11 1  
    11   11   12 1  
    12   11   13 1  
    13   12   17 1  
    14   13   14 1  
    15   13   15 1  
    16   15   16 1  
    17   15   17 1  
    18   17   18 1  
    19   18   19 1  
    20   18   28 1  
    21   19   20 2  
    22   20   21 1  
    23   21   22 1  
    24   21   28 2  
    25   22   23 2  
    26   22   24 am 
    27   24   25 ar 
    28   25   26 ar 
    29   25   27 ar 
    30   27   28 1  
    31   10   29 1  
    32   10   30 1  
    33   11   31 1  
    34   13   32 1  
    35   14   33 1  
    36   15   34 1  
    37   16   35 1  
    38   17   36 1  
    39   19   37 1  
    40   24   38 1  
    41   26   39 1  
    42   26   40 1  
    43   27   41 1  
@<TRIPOS>SUBSTRUCTURE
     1 GDP         1

