### 
### Created by X-TOOL on Sat Nov 28 16:03:00 2015
### 

@<TRIPOS>MOLECULE
4lj3_ligand
   70    76     1     0     0
SMALL
GAST_HUCK


@<TRIPOS>ATOM
      1 P1         14.0080    5.2660   24.8000 P.3       1 C2E         0.2557
      2 O2P        13.8970    3.7750   24.8260 O.co2     1 C2E        -0.6177
      3 O1P        12.7490    6.0180   25.1290 O.co2     1 C2E        -0.6177
      4 O5'        15.2010    5.7020   25.7480 O.3       1 C2E        -0.2514
      5 C5'        15.2300    6.9140   26.4960 C.3       1 C2E         0.1128
      6 C4'        15.7660    8.0640   25.6920 C.3       1 C2E         0.1243
      7 O4'        15.4730    9.2540   26.4130 O.3       1 C2E        -0.3343
      8 C3'        17.2770    8.0220   25.5190 C.3       1 C2E         0.1541
      9 O3'        17.7030    8.7260   24.3570 O.3       1 C2E        -0.2453
     10 C2'        17.7390    8.7170   26.7900 C.3       1 C2E         0.1461
     11 O2'        19.1020    9.1930   26.8000 O.3       1 C2E        -0.3831
     12 C1'        16.7170    9.8370   26.7810 C.3       1 C2E         0.2222
     13 N9         16.5340   10.4810   28.0790 N.pl3     1 C2E        -0.0954
     14 C8         16.5910    9.8940   29.3060 C.2       1 C2E         0.1855
     15 N7         16.3770   10.7800   30.2850 N.2       1 C2E        -0.1929
     16 C5         16.1190   11.9520   29.6390 C.2       1 C2E         0.2558
     17 C6         15.7990   13.2910   30.1060 C.2       1 C2E         0.2628
     18 O6         15.7260   13.4970   31.3290 O.2       1 C2E        -0.3594
     19 N1         15.6630   14.2330   29.1860 N.am      1 C2E        -0.2478
     20 C2         15.7620   13.9860   27.8600 C.cat     1 C2E         0.2041
     21 N2         15.5570   15.0030   27.0320 N.pl3     1 C2E        -0.3327
     22 N3         16.0490   12.7760   27.3060 N.pl3     1 C2E        -0.1901
     23 C4         16.2310   11.7500   28.1960 C.2       1 C2E         0.3268
     24 P11        18.7580    8.0940   23.3410 P.3       1 C2E         0.2557
     25 O21        18.9900    9.1660   22.3000 O.co2     1 C2E        -0.6177
     26 O11        19.7950    7.2860   23.9970 O.co2     1 C2E        -0.6177
     27 O5A        17.7920    6.9940   22.6820 O.3       1 C2E        -0.2514
     28 C5A        16.7430    7.3690   21.8170 C.3       1 C2E         0.1128
     29 C4A        15.9190    6.1410   21.5000 C.3       1 C2E         0.1243
     30 O4A        16.7600    5.2570   20.7310 O.3       1 C2E        -0.3343
     31 C3A        15.4370    5.2920   22.6580 C.3       1 C2E         0.1541
     32 O3A        14.2930    5.8450   23.3320 O.3       1 C2E        -0.2453
     33 C2A        15.2590    3.9600   21.9290 C.3       1 C2E         0.1461
     34 O2A        13.9770    3.9190   21.3050 O.3       1 C2E        -0.3831
     35 C1A        16.3470    3.9210   20.8590 C.3       1 C2E         0.2222
     36 N91        17.4720    3.1000   21.3180 N.pl3     1 C2E        -0.0954
     37 C81        18.4720    3.4750   22.1530 C.2       1 C2E         0.1855
     38 N71        19.3120    2.4440   22.3820 N.2       1 C2E        -0.1929
     39 C51        18.8110    1.3950   21.6990 C.2       1 C2E         0.2558
     40 C61        19.1630   -0.0130   21.4740 C.2       1 C2E         0.2628
     41 O61        20.1830   -0.5040   22.0020 O.2       1 C2E        -0.3594
     42 N11        18.3820   -0.7510   20.6640 N.am      1 C2E        -0.2478
     43 C21        17.2710   -0.2880   20.0750 C.cat     1 C2E         0.2041
     44 N21        16.5650   -1.1390   19.3000 N.pl3     1 C2E        -0.3327
     45 N31        16.8630    0.9870   20.2330 N.pl3     1 C2E        -0.1901
     46 C41        17.5990    1.8420   21.0050 C.2       1 C2E         0.3268
     47 H          15.8701    6.7702   27.3789 H         1 C2E         0.0647
     48 H          14.2068    7.1548   26.8202 H         1 C2E         0.0647
     49 H          15.2824    8.0770   24.7041 H         1 C2E         0.0655
     50 H          17.6446    6.9864   25.4712 H         1 C2E         0.0712
     51 H          17.6073    8.0602   27.6625 H         1 C2E         0.0681
     52 H          19.2214    9.8230   26.0990 H         1 C2E         0.2102
     53 H          17.0191   10.5956   26.0440 H         1 C2E         0.1022
     54 H          16.7864    8.8353   29.4700 H         1 C2E         0.1823
     55 H          15.4788   15.1693   29.4849 H         1 C2E         0.1819
     56 H          15.6225   14.8596   26.0141 H         1 C2E         0.1774
     57 H          15.3325   15.9355   27.4074 H         1 C2E         0.1774
     58 H          16.1242   12.6410   26.2877 H         1 C2E         0.2519
     59 H          17.1593    7.7862   20.8882 H         1 C2E         0.0647
     60 H          16.1103    8.1239   22.3067 H         1 C2E         0.0647
     61 H          15.0453    6.4588   20.9121 H         1 C2E         0.0655
     62 H          16.2304    5.1908   23.4132 H         1 C2E         0.0712
     63 H          15.3661    3.1162   22.6266 H         1 C2E         0.0681
     64 H          13.3011    4.0087   21.9665 H         1 C2E         0.2102
     65 H          15.9559    3.5310   19.9077 H         1 C2E         0.1022
     66 H          18.5822    4.4707   22.5800 H         1 C2E         0.1823
     67 H          18.6460   -1.7000   20.4916 H         1 C2E         0.1819
     68 H          15.7059   -0.8171   18.8319 H         1 C2E         0.1774
     69 H          16.8856   -2.1101   19.1769 H         1 C2E         0.1774
     70 H          16.0011    1.3153   19.7744 H         1 C2E         0.2519
@<TRIPOS>BOND
     1    1    2 ar 
     2    1    3 ar 
     3    1    4 1  
     4    1   32 1  
     5    4    5 1  
     6    5    6 1  
     7    6    7 1  
     8    6    8 1  
     9    7   12 1  
    10    8    9 1  
    11    8   10 1  
    12    9   24 1  
    13   10   11 1  
    14   10   12 1  
    15   12   13 1  
    16   13   14 1  
    17   13   23 1  
    18   14   15 2  
    19   15   16 1  
    20   16   17 1  
    21   16   23 2  
    22   17   18 2  
    23   17   19 am 
    24   19   20 ar 
    25   20   21 ar 
    26   20   22 ar 
    27   22   23 1  
    28   24   25 ar 
    29   24   26 ar 
    30   24   27 1  
    31   27   28 1  
    32   28   29 1  
    33   29   30 1  
    34   29   31 1  
    35   30   35 1  
    36   31   32 1  
    37   31   33 1  
    38   33   34 1  
    39   33   35 1  
    40   35   36 1  
    41   36   37 1  
    42   36   46 1  
    43   37   38 2  
    44   38   39 1  
    45   39   40 1  
    46   39   46 2  
    47   40   41 2  
    48   40   42 am 
    49   42   43 ar 
    50   43   44 ar 
    51   43   45 ar 
    52   45   46 1  
    53    5   47 1  
    54    5   48 1  
    55    6   49 1  
    56    8   50 1  
    57   10   51 1  
    58   11   52 1  
    59   12   53 1  
    60   14   54 1  
    61   19   55 1  
    62   21   56 1  
    63   21   57 1  
    64   22   58 1  
    65   28   59 1  
    66   28   60 1  
    67   29   61 1  
    68   31   62 1  
    69   33   63 1  
    70   34   64 1  
    71   35   65 1  
    72   37   66 1  
    73   42   67 1  
    74   44   68 1  
    75   44   69 1  
    76   45   70 1  
@<TRIPOS>SUBSTRUCTURE
     1 C2E         1

