### 
### Created by X-TOOL on Mon Nov 14 15:20:42 2016
### 

@<TRIPOS>MOLECULE
4lv1_ligand
   26    27     1     0     0
SMALL
GAST_HUCK


@<TRIPOS>ATOM
      1 B03        26.2190    4.7950   16.2220 B         1 NL9         3.0000
      2 O04        25.1650    3.8030   16.6380 O.3       1 NL9        -0.4105
      3 O05        26.3370    5.7130   17.3970 O.3       1 NL9        -0.4105
      4 C06        25.6440    5.5020   14.9220 C.2       1 NL9        -0.0469
      5 C07        25.6340    6.8610   14.5870 C.2       1 NL9        -0.0053
      6 N08        25.0030    6.9910   13.4130 N.2       1 NL9        -0.2061
      7 N09        24.5610    5.7860   12.9930 N.pl3     1 NL9        -0.1641
      8 C10        23.8320    5.5850   11.8720 C.ar      1 NL9         0.1127
      9 C11        22.9100    4.5350   11.8300 C.ar      1 NL9        -0.0247
     10 C12        22.1360    4.3300   10.6920 C.ar      1 NL9        -0.0649
     11 C13        22.2500    5.1660    9.6070 C.ar      1 NL9        -0.0544
     12 C14        23.1270    6.2280    9.6660 C.ar      1 NL9         0.0369
     13 CL1        23.2650    7.2970    8.2920 Cl        1 NL9        -0.0724
     14 C16        23.9160    6.4560   10.7900 C.ar      1 NL9        -0.0110
     15 C17        24.9500    4.8750   13.8910 C.2       1 NL9         0.0645
     16 H1         25.0280    3.1758   15.9377 H         1 NL9         0.2052
     17 H2         25.0280    3.1758   15.9378 H         1 NL9         0.2052
     18 H3         25.4981    6.1284   17.5584 H         1 NL9         0.2052
     19 H4         25.4980    6.1284   17.5584 H         1 NL9         0.2052
     20 H5         26.0956    5.0372   15.7972 H         1 NL9         0.0346
     21 H6         26.0634    7.6696   15.1767 H         1 NL9         0.0658
     22 H7         22.7978    3.8792   12.6858 H         1 NL9         0.0591
     23 H8         21.4362    3.5028   10.6609 H         1 NL9         0.0601
     24 H9         21.6576    4.9924    8.7159 H         1 NL9         0.0567
     25 H10        24.5898    7.3045   10.8221 H         1 NL9         0.0595
     26 H11        24.7539    3.8058   13.8258 H         1 NL9         0.0997
@<TRIPOS>BOND
     1    1    2 1  
     2    1    3 1  
     3    1    4 1  
     4    4    5 1  
     5    4   15 2  
     6    5    6 2  
     7    6    7 1  
     8    7    8 1  
     9    7   15 1  
    10    8    9 ar 
    11    8   14 ar 
    12    9   10 ar 
    13   10   11 ar 
    14   11   12 ar 
    15   12   13 1  
    16   12   14 ar 
    17    2   16 1  
    18    2   17 1  
    19    3   18 1  
    20    3   19 1  
    21    4   20 1  
    22    5   21 1  
    23    9   22 1  
    24   10   23 1  
    25   11   24 1  
    26   14   25 1  
    27   15   26 1  
@<TRIPOS>SUBSTRUCTURE
     1 NL9         1

