### 
### Created by X-TOOL on Sat Nov 28 16:07:21 2015
### 

@<TRIPOS>MOLECULE
4ngh_ligand
  327   332     1     0     0
SMALL
GAST_HUCK


@<TRIPOS>ATOM
      1 C         -81.2900   77.9960  -20.9850 C.2       1 ACE         0.1752
      2 O         -80.9770   76.7060  -21.3860 O.2       1 ACE        -0.3972
      3 CH3       -82.1700   78.7170  -21.9510 C.3       1 ACE         0.0258
      4 N         -81.4790   78.3300  -19.7310 N.am      1 ACE        -0.2637
      5 CA        -80.7980   77.6180  -18.6660 C.3       1 ACE         0.1475
      6 C         -81.7610   76.5950  -18.0450 C.2       1 ACE         0.2063
      7 O         -82.7960   76.9720  -17.4860 O.2       1 ACE        -0.3942
      8 CB        -80.2770   78.6130  -17.6130 C.3       1 ACE         0.0773
      9 CG        -79.4850   77.9450  -16.5110 C.2       1 ACE         0.1780
     10 OD1       -79.2200   76.7430  -16.5550 O.2       1 ACE        -0.3970
     11 ND2       -79.1120   78.7240  -15.5020 N.am      1 ACE        -0.3007
     12 N         -81.4160   75.3130  -18.1600 N.am      1 ACE        -0.2625
     13 CA        -82.2190   74.2120  -17.6200 C.3       1 ACE         0.1352
     14 C         -82.5330   74.4190  -16.1370 C.2       1 ACE         0.2053
     15 O         -83.6010   74.0440  -15.6460 O.2       1 ACE        -0.3942
     16 CB        -81.4450   72.9020  -17.8200 C.3       1 ACE         0.0042
     17 CG        -82.0750   71.6190  -17.3340 C.2       1 ACE        -0.0418
     18 CD1       -82.9230   70.8130  -18.0270 C.2       1 ACE         0.0167
     19 CD2       -81.8490   70.9690  -16.0750 C.ar      1 ACE        -0.0214
     20 NE1       -83.2630   69.7160  -17.2780 N.pl3     1 ACE        -0.2890
     21 CE2       -82.6120   69.7820  -16.0780 C.ar      1 ACE         0.0603
     22 CE3       -81.0780   71.2750  -14.9500 C.ar      1 ACE        -0.0747
     23 CZ2       -82.6280   68.8990  -15.0000 C.ar      1 ACE        -0.0443
     24 CZ3       -81.0890   70.3970  -13.8820 C.ar      1 ACE        -0.0792
     25 CH2       -81.8640   69.2210  -13.9120 C.ar      1 ACE        -0.0768
     26 N         -81.6020   75.0440  -15.4310 N.am      1 ACE        -0.2618
     27 CA        -81.7440   75.2240  -14.0000 C.3       1 ACE         0.1404
     28 C         -82.8110   76.2540  -13.6530 C.2       1 ACE         0.2061
     29 O         -83.1100   76.5000  -12.4840 O.2       1 ACE        -0.3942
     30 CB        -80.3920   75.5880  -13.3910 C.3       1 ACE         0.0214
     31 CG        -79.3910   74.4740  -13.4280 C.ar      1 ACE        -0.0386
     32 CD1       -79.2850   73.5700  -12.3700 C.ar      1 ACE        -0.0601
     33 CD2       -78.5460   74.3190  -14.5180 C.ar      1 ACE        -0.0601
     34 CE1       -78.3420   72.5200  -12.4020 C.ar      1 ACE        -0.0686
     35 CE2       -77.5980   73.2640  -14.5590 C.ar      1 ACE        -0.0686
     36 CZ        -77.5050   72.3700  -13.5070 C.ar      1 ACE        -0.0687
     37 N         -83.3990   76.8550  -14.6720 N.am      1 ACE        -0.2615
     38 CA        -84.4140   77.8640  -14.4400 C.3       1 ACE         0.1476
     39 C         -85.8250   77.3560  -14.6820 C.2       1 ACE         0.2063
     40 O         -86.7990   78.0580  -14.4140 O.2       1 ACE        -0.3942
     41 CB        -84.1330   79.1060  -15.2860 C.3       1 ACE         0.0773
     42 CG        -82.9860   79.9320  -14.7330 C.2       1 ACE         0.1780
     43 OD1       -82.7550   79.9430  -13.5220 O.2       1 ACE        -0.3970
     44 ND2       -82.2550   80.6200  -15.6130 N.am      1 ACE        -0.3007
     45 N         -85.9270   76.1250  -15.1650 N.am      1 ACE        -0.2633
     46 CA        -87.1980   75.5700  -15.6030 C.3       1 ACE         0.1335
     47 C         -88.2100   75.3740  -14.4600 C.2       1 ACE         0.2042
     48 O         -89.4000   75.6640  -14.6220 O.2       1 ACE        -0.3944
     49 CB        -86.9770   74.2600  -16.3600 C.3       1 ACE        -0.0037
     50 CG1       -86.2160   74.5260  -17.6540 C.3       1 ACE        -0.0491
     51 CG2       -88.2870   73.5840  -16.6750 C.3       1 ACE        -0.0582
     52 CD1       -86.0240   73.2840  -18.4810 C.3       1 ACE        -0.0648
     53 N         -87.7370   74.9220  -13.3010 N.am      1 ACE        -0.2613
     54 CA        -88.6550   74.5890  -12.2250 C.3       1 ACE         0.1565
     55 C         -89.2340   75.8410  -11.6140 C.2       1 ACE         0.2066
     56 O         -90.3180   75.8170  -11.0180 O.2       1 ACE        -0.3943
     57 CB        -88.0070   73.6940  -11.1520 C.3       1 ACE         0.0924
     58 OG1       -86.8280   74.3240  -10.6670 O.3       1 ACE        -0.3874
     59 CG2       -87.6350   72.3740  -11.7590 C.3       1 ACE        -0.0346
     60 N         -88.5120   76.9430  -11.7660 N.am      1 ACE        -0.2615
     61 CA        -89.0330   78.2320  -11.3570 C.3       1 ACE         0.1473
     62 C         -90.2450   78.6270  -12.1990 C.2       1 ACE         0.2033
     63 O         -91.2620   79.0500  -11.6560 O.2       1 ACE        -0.3945
     64 CB        -87.9530   79.2960  -11.4300 C.3       1 ACE         0.0773
     65 CG        -88.4260   80.6120  -10.8810 C.2       1 ACE         0.1780
     66 OD1       -88.6190   80.7540   -9.6740 O.2       1 ACE        -0.3970
     67 ND2       -88.6520   81.5780  -11.7630 N.am      1 ACE        -0.3007
     68 N         -90.1340   78.4750  -13.5220 N.am      1 ACE        -0.2741
     69 CA        -91.2390   78.7430  -14.4370 C.3       1 ACE         0.1302
     70 CB1       -91.5600   80.2310  -14.3750 C.3       1 ACE        -0.0201
     71 CG1       -92.7320   80.8260  -15.1840 C.3       1 ACE        -0.0516
     72 CB2       -90.7350   78.4170  -15.8110 C.3       1 ACE        -0.0320
     73 C         -92.4190   77.8860  -13.9850 C.2       1 ACE         0.2263
     74 O         -93.5590   78.3290  -13.8080 O.2       1 ACE        -0.3419
     75 N         -92.1550   76.4780  -13.7390 N.am      1 ACE        -0.2629
     76 CA        -93.1790   75.5740  -13.2970 C.3       1 ACE         0.1314
     77 C         -93.7950   75.9920  -11.9520 C.2       1 ACE         0.2041
     78 O         -95.0010   75.9140  -11.7700 O.2       1 ACE        -0.3944
     79 CB        -92.6120   74.1490  -13.1620 C.3       1 ACE        -0.0099
     80 CG        -92.2770   73.4790  -14.5020 C.3       1 ACE        -0.0425
     81 CD1       -91.6090   72.1840  -14.3130 C.3       1 ACE        -0.0625
     82 CD2       -93.4840   73.3860  -15.4060 C.3       1 ACE        -0.0625
     83 N         -92.9220   76.4740  -10.8730 N.am      1 ACE        -0.2627
     84 CA        -93.5520   76.8410   -9.5950 C.3       1 ACE         0.1349
     85 C         -94.4700   78.0540   -9.7180 C.2       1 ACE         0.2022
     86 O         -95.5520   78.1070   -9.0240 O.2       1 ACE        -0.3946
     87 CB        -92.4650   77.1080   -8.5760 C.3       1 ACE         0.0042
     88 CG        -92.8480   77.7320   -7.2180 C.2       1 ACE        -0.0418
     89 CD1       -93.3600   77.1080   -6.0800 C.2       1 ACE         0.0167
     90 CD2       -92.7250   79.0930   -6.9220 C.ar      1 ACE        -0.0214
     91 NE1       -93.5380   78.0420   -5.1290 N.pl3     1 ACE        -0.2890
     92 CE2       -93.1650   79.2510   -5.6150 C.ar      1 ACE         0.0603
     93 CE3       -92.2740   80.1880   -7.6700 C.ar      1 ACE        -0.0747
     94 CZ2       -93.1520   80.5340   -5.0550 C.ar      1 ACE        -0.0443
     95 CZ3       -92.2570   81.4620   -7.1090 C.ar      1 ACE        -0.0792
     96 CH2       -92.6990   81.6250   -5.7980 C.ar      1 ACE        -0.0768
     97 C         -96.0320   79.9090  -11.5770 C.2       1 ACE         0.2263
     98 N         -94.0300   79.1350  -10.6470 N.am      1 ACE        -0.2742
     99 O         -97.0630   80.3660  -11.1690 O.2       1 ACE        -0.3419
    100 CA        -94.7020   80.3710  -10.9070 C.3       1 ACE         0.1302
    101 CB        -93.7880   81.1910  -11.7940 C.3       1 ACE        -0.0201
    102 CD        -94.4430   82.3180  -13.9750 C.3       1 ACE        -0.0531
    103 CE        -93.1100   82.1620  -14.7160 C.3       1 ACE        -0.0531
    104 CG        -94.2820   82.4830  -12.4490 C.3       1 ACE        -0.0516
    105 CB1       -95.0960   81.1500   -9.6930 C.3       1 ACE        -0.0320
    106 N         -96.0880   78.9280  -12.6570 N.am      1 ACE        -0.2626
    107 CA        -97.4420   78.5720  -13.1790 C.3       1 ACE         0.1336
    108 C         -98.3400   77.8340  -12.1360 C.2       1 ACE         0.2043
    109 O         -99.4680   78.1780  -11.9820 O.2       1 ACE        -0.3944
    110 CB        -97.2050   77.7530  -14.5000 C.3       1 ACE        -0.0035
    111 CG1       -96.5850   78.5180  -15.5510 C.3       1 ACE        -0.0491
    112 CG2       -98.5060   77.1900  -14.9810 C.3       1 ACE        -0.0582
    113 CD1       -95.7370   77.7460  -16.4570 C.3       1 ACE        -0.0648
    114 N         -97.8010   76.7320  -11.3990 N.am      1 ACE        -0.2636
    115 CA        -98.6060   75.9960  -10.4410 C.3       1 ACE         0.1328
    116 C         -99.1050   76.9790   -9.4100 C.2       1 ACE         0.2040
    117 O        -100.2060   76.8110   -8.9310 O.2       1 ACE        -0.3944
    118 CB        -97.6840   74.8710  -10.0340 C.3       1 ACE         0.0078
    119 CG        -98.1740   73.7430   -9.0880 C.3       1 ACE         0.0351
    120 ND        -98.1240   72.2990   -9.4200 N.am      1 ACE        -0.2851
    121 CE        -97.7530   71.3690   -8.3500 C.2       1 ACE         0.1985
    122 CZ        -97.6830   69.8600   -8.5250 C.3       1 ACE         0.1201
    123 N1        -97.8810   69.1220   -7.2380 N.am      1 ACE        -0.2636
    124 C2        -98.4410   67.7880   -7.0090 C.2       1 ACE         0.2291
    125 OZ1       -98.5060   67.4010   -5.8220 O.2       1 ACE        -0.3906
    126 C4        -98.9110   66.8270   -8.0630 C.3       1 ACE         0.0932
    127 C5        -97.7730   66.0070   -8.6250 C.3       1 ACE         0.1380
    128 N6        -99.6340   67.4470   -9.1660 N.4       1 ACE         0.2398
    129 O7        -97.4960   71.8260   -7.2430 O.2       1 ACE        -0.3949
    130 P         -96.0630   65.2140   -6.7520 P.3       1 ACE         0.2012
    131 O1        -97.2420   64.9800   -7.8480 O.3       1 ACE        -0.2680
    132 O2        -94.8130   64.4750   -7.2110 O.co2     1 ACE        -0.5537
    133 O3        -95.7220   66.7050   -6.6040 O.co2     1 ACE        -0.5537
    134 O4        -96.4980   64.6590   -5.3860 O.co2     1 ACE        -0.5537
    135 N         -98.3470   78.1950   -8.9490 N.am      1 ACE        -0.2637
    136 CA        -98.9170   79.0890   -7.9490 C.3       1 ACE         0.1310
    137 C        -100.0350   79.9530   -8.5520 C.2       1 ACE         0.2039
    138 O        -100.9910   80.3380   -7.8330 O.2       1 ACE        -0.3944
    139 CB        -97.9150   80.0500   -7.3210 C.3       1 ACE        -0.0122
    140 CG        -97.8240   80.1890   -5.8250 C.3       1 ACE        -0.0440
    141 CD        -97.1430   79.0830   -4.9410 C.3       1 ACE        -0.0124
    142 CE        -97.4920   79.0830   -3.4120 C.3       1 ACE        -0.0354
    143 NZ        -97.9650   77.8460   -2.7910 N.4       1 ACE         0.2185
    144 N        -100.0770   80.3750   -9.9680 N.am      1 ACE        -0.2637
    145 CA       -101.1450   81.1990  -10.5160 C.3       1 ACE         0.1309
    146 C        -102.2720   80.2030  -10.8470 C.2       1 ACE         0.2033
    147 O        -103.3730   80.6320  -11.2110 O.2       1 ACE        -0.3944
    148 CB       -100.8200   82.0020  -11.7470 C.3       1 ACE        -0.0122
    149 CG        -99.3790   82.5210  -11.9750 C.3       1 ACE        -0.0440
    150 CD        -99.1970   84.0380  -12.1810 C.3       1 ACE        -0.0124
    151 CE        -98.5700   84.8350  -11.0770 C.3       1 ACE        -0.0354
    152 NZ        -97.1090   85.0210  -11.1400 N.4       1 ACE         0.2185
    153 N        -101.9650   78.7130  -10.6920 N.am      1 ACE        -0.2695
    154 CA       -102.9130   77.6020  -10.9730 C.3       1 ACE         0.0944
    155 C        -102.9100   77.2080  -12.4670 C.2       1 ACE         0.0601
    156 O        -103.3490   77.9910  -13.3340 O.co2     1 ACE        -0.5666
    157 CB       -104.3680   77.8330  -10.4250 C.3       1 ACE        -0.0177
    158 CG       -104.5780   78.3840   -9.0390 C.3       1 ACE        -0.0446
    159 CD       -105.7910   79.2800   -8.8000 C.3       1 ACE        -0.0125
    160 CE       -107.0180   78.6850   -8.1450 C.3       1 ACE        -0.0354
    161 NZ       -108.1850   79.5320   -7.9330 N.4       1 ACE         0.2185
    162 OXT      -102.4490   76.1180  -12.8490 O.co2     1 ACE        -0.5666
    163 H         -82.3778   79.7288  -21.5729 H         1 ACE         0.0467
    164 H         -83.1158   78.1673  -22.0663 H         1 ACE         0.0467
    165 H         -81.6650   78.7864  -22.9258 H         1 ACE         0.0467
    166 H         -82.0983   79.0825  -19.5067 H         1 ACE         0.1884
    167 H         -79.9385   77.0787  -19.0907 H         1 ACE         0.0826
    168 H         -81.1374   79.1297  -17.1627 H         1 ACE         0.0551
    169 H         -79.6296   79.3474  -18.1145 H         1 ACE         0.0551
    170 H         -78.5859   78.3411  -14.7427 H         1 ACE         0.1814
    171 H         -79.3573   79.6935  -15.5016 H         1 ACE         0.1814
    172 H         -80.5666   75.0909  -18.6388 H         1 ACE         0.1884
    173 H         -83.1678   74.1586  -18.1740 H         1 ACE         0.0815
    174 H         -80.4819   73.0097  -17.2997 H         1 ACE         0.0397
    175 H         -81.2679   72.7896  -18.8998 H         1 ACE         0.0397
    176 H         -83.2819   71.0111  -19.0359 H         1 ACE         0.0795
    177 H         -83.9040   68.9651  -17.5716 H         1 ACE         0.2216
    178 H         -80.4842   72.1812  -14.9156 H         1 ACE         0.0540
    179 H         -83.2224   67.9928  -15.0228 H         1 ACE         0.0541
    180 H         -80.4904   70.6176  -13.0056 H         1 ACE         0.0510
    181 H         -81.8547   68.5574  -13.0549 H         1 ACE         0.0530
    182 H         -80.7884   75.3971  -15.8930 H         1 ACE         0.1885
    183 H         -82.0614   74.2627  -13.5697 H         1 ACE         0.0823
    184 H         -80.5510   75.8762  -12.3414 H         1 ACE         0.0474
    185 H         -79.9800   76.4426  -13.9476 H         1 ACE         0.0474
    186 H         -79.9369   73.6758  -11.5104 H         1 ACE         0.0557
    187 H         -78.6110   75.0126  -15.3485 H         1 ACE         0.0557
    188 H         -78.2687   71.8310  -11.5683 H         1 ACE         0.0599
    189 H         -76.9445   73.1581  -15.4173 H         1 ACE         0.0599
    190 H         -76.7867   71.5589  -13.5417 H         1 ACE         0.0559
    191 H         -83.1428   76.6128  -15.6078 H         1 ACE         0.1885
    192 H         -84.3494   78.1565  -13.3816 H         1 ACE         0.0826
    193 H         -85.0386   79.7299  -15.3103 H         1 ACE         0.0551
    194 H         -83.8793   78.7880  -16.3080 H         1 ACE         0.0551
    195 H         -81.4884   81.1792  -15.2975 H         1 ACE         0.1814
    196 H         -82.4741   80.5762  -16.5877 H         1 ACE         0.1814
    197 H         -85.1040   75.5606  -15.2301 H         1 ACE         0.1883
    198 H         -87.6408   76.2910  -16.3059 H         1 ACE         0.0803
    199 H         -86.3784   73.5879  -15.7276 H         1 ACE         0.0345
    200 H         -85.2274   74.9375  -17.4025 H         1 ACE         0.0267
    201 H         -86.7787   75.2609  -18.2484 H         1 ACE         0.0267
    202 H         -88.8349   73.3927  -15.7405 H         1 ACE         0.0235
    203 H         -88.0935   72.6305  -17.1883 H         1 ACE         0.0235
    204 H         -88.8886   74.2354  -17.3259 H         1 ACE         0.0235
    205 H         -85.4714   73.5360  -19.3981 H         1 ACE         0.0230
    206 H         -87.0057   72.8657  -18.7477 H         1 ACE         0.0230
    207 H         -85.4544   72.5423  -17.9019 H         1 ACE         0.0230
    208 H         -86.7516   74.8118  -13.1709 H         1 ACE         0.1884
    209 H         -89.4857   74.0191  -12.6668 H         1 ACE         0.0826
    210 H         -88.7139   73.5368  -10.3240 H         1 ACE         0.0639
    211 H         -86.4260   73.7741  -10.0048 H         1 ACE         0.2101
    212 H         -87.1723   71.7353  -10.9923 H         1 ACE         0.0257
    213 H         -86.9216   72.5362  -12.5804 H         1 ACE         0.0257
    214 H         -88.5382   71.8824  -12.1494 H         1 ACE         0.0257
    215 H         -87.5980   76.8839  -12.1673 H         1 ACE         0.1885
    216 H         -89.3596   78.1498  -10.3098 H         1 ACE         0.0826
    217 H         -87.6599   79.4338  -12.4812 H         1 ACE         0.0551
    218 H         -87.0825   78.9599  -10.8476 H         1 ACE         0.0551
    219 H         -88.9682   82.4745  -11.4526 H         1 ACE         0.1814
    220 H         -88.5060   81.4092  -12.7378 H         1 ACE         0.1814
    221 H         -89.2610   78.1660  -13.8993 H         1 ACE         0.1839
    222 H         -90.6532   80.7604  -14.7028 H         1 ACE         0.0277
    223 H         -91.7591   80.4642  -13.3186 H         1 ACE         0.0277
    224 H         -93.6016   80.1591  -15.0894 H         1 ACE         0.0265
    225 H         -92.4343   80.8927  -16.2408 H         1 ACE         0.0265
    226 H         -91.5314   78.6015  -16.5470 H         1 ACE         0.0242
    227 H         -90.4369   77.3589  -15.8508 H         1 ACE         0.0242
    228 H         -89.8670   79.0515  -16.0433 H         1 ACE         0.0242
    229 H         -91.2295   76.1274  -13.8824 H         1 ACE         0.1889
    230 H         -93.9764   75.5669  -14.0547 H         1 ACE         0.0802
    231 H         -93.3568   73.5285  -12.6421 H         1 ACE         0.0315
    232 H         -91.6921   74.1986  -12.5609 H         1 ACE         0.0315
    233 H         -91.5543   74.1336  -15.0111 H         1 ACE         0.0298
    234 H         -91.3873   71.7392  -15.2943 H         1 ACE         0.0232
    235 H         -92.2684   71.5106  -13.7458 H         1 ACE         0.0232
    236 H         -90.6713   72.3327  -13.7575 H         1 ACE         0.0232
    237 H         -93.9414   74.3809  -15.5104 H         1 ACE         0.0232
    238 H         -94.2158   72.6900  -14.9702 H         1 ACE         0.0232
    239 H         -93.1736   73.0195  -16.3956 H         1 ACE         0.0232
    240 H         -91.9334   76.5500  -11.0028 H         1 ACE         0.1884
    241 H         -94.1579   75.9896   -9.2517 H         1 ACE         0.0815
    242 H         -91.7397   77.7864   -9.0490 H         1 ACE         0.0397
    243 H         -91.9801   76.1441   -8.3622 H         1 ACE         0.0397
    244 H         -93.5782   76.0459   -5.9791 H         1 ACE         0.0795
    245 H         -93.9005   77.8663   -4.1810 H         1 ACE         0.2216
    246 H         -91.9368   80.0428   -8.6899 H         1 ACE         0.0540
    247 H         -93.4961   80.6810   -4.0376 H         1 ACE         0.0541
    248 H         -91.9059   82.3124   -7.6823 H         1 ACE         0.0510
    249 H         -92.6910   82.6118   -5.3493 H         1 ACE         0.0530
    250 H         -93.1743   78.9792  -11.1405 H         1 ACE         0.1839
    251 H         -93.4669   80.5283  -12.6111 H         1 ACE         0.0277
    252 H         -92.9173   81.4641  -11.1797 H         1 ACE         0.0277
    253 H         -95.0546   81.4239  -14.1661 H         1 ACE         0.0265
    254 H         -94.9588   83.2061  -14.3689 H         1 ACE         0.0265
    255 H         -93.1481   82.8183  -15.5980 H         1 ACE         0.0265
    256 H         -92.3165   82.5065  -14.0365 H         1 ACE         0.0265
    257 H         -93.5553   83.2847  -12.2509 H         1 ACE         0.0265
    258 H         -95.2552   82.7547  -12.0143 H         1 ACE         0.0265
    259 H         -95.6023   82.0769  -10.0005 H         1 ACE         0.0242
    260 H         -94.1974   81.3993   -9.1097 H         1 ACE         0.0242
    261 H         -95.7782   80.5470   -9.0758 H         1 ACE         0.0242
    262 H         -95.2581   78.5133  -13.0303 H         1 ACE         0.1889
    263 H         -97.9636   79.5038  -13.4428 H         1 ACE         0.0805
    264 H         -96.5333   76.9164  -14.2574 H         1 ACE         0.0345
    265 H         -95.9654   79.2986  -15.0854 H         1 ACE         0.0267
    266 H         -97.3813   78.9885  -16.1464 H         1 ACE         0.0267
    267 H         -98.9740   76.6072  -14.1740 H         1 ACE         0.0235
    268 H         -98.3250   76.5369  -15.8474 H         1 ACE         0.0235
    269 H         -99.1750   78.0122  -15.2750 H         1 ACE         0.0235
    270 H         -95.3117   78.4145  -17.2200 H         1 ACE         0.0230
    271 H         -96.3385   76.9662  -16.9470 H         1 ACE         0.0230
    272 H         -94.9226   77.2763  -15.8860 H         1 ACE         0.0230
    273 H         -96.8493   76.4631  -11.5471 H         1 ACE         0.1883
    274 H         -99.4894   75.5572  -10.9277 H         1 ACE         0.0800
    275 H         -96.8178   75.3380   -9.5425 H         1 ACE         0.0332
    276 H         -97.3582   74.3810  -10.9634 H         1 ACE         0.0332
    277 H         -99.2318   73.9648   -8.8834 H         1 ACE         0.0522
    278 H         -97.5900   73.8559   -8.1627 H         1 ACE         0.0522
    279 H         -98.3358   71.9715  -10.3408 H         1 ACE         0.1851
    280 H         -96.6957   69.5980   -8.9331 H         1 ACE         0.0763
    281 H         -98.4662   69.5506   -9.2327 H         1 ACE         0.0763
    282 H         -97.5888   69.6102   -6.4156 H         1 ACE         0.1882
    283 H         -99.6077   66.1349   -7.5675 H         1 ACE         0.1125
    284 H         -96.9509   66.7032   -8.8472 H         1 ACE         0.0696
    285 H         -98.1320   65.5530   -9.5604 H         1 ACE         0.0696
    286 H        -100.3960   67.9969   -8.8013 H         1 ACE         0.2016
    287 H         -99.9979   66.7303   -9.7743 H         1 ACE         0.2016
    288 H         -99.0083   68.0427   -9.6853 H         1 ACE         0.2016
    289 H         -97.4444   78.3912   -9.3322 H         1 ACE         0.1883
    290 H         -99.3411   78.4623   -7.1507 H         1 ACE         0.0800
    291 H         -98.1466   81.0498   -7.7168 H         1 ACE         0.0312
    292 H         -96.9191   79.7392   -7.6697 H         1 ACE         0.0312
    293 H         -98.8564   80.2880   -5.4585 H         1 ACE         0.0269
    294 H         -97.2753   81.1227   -5.6322 H         1 ACE         0.0269
    295 H         -96.0540   79.2075   -5.0333 H         1 ACE         0.0317
    296 H         -97.4361   78.1043   -5.3488 H         1 ACE         0.0317
    297 H         -98.2761   79.8395   -3.2607 H         1 ACE         0.0813
    298 H         -96.5816   79.3857   -2.8739 H         1 ACE         0.0813
    299 H         -98.1448   78.0086   -1.8126 H         1 ACE         0.1994
    300 H         -97.2617   77.1306   -2.8890 H         1 ACE         0.1994
    301 H         -98.8145   77.5464   -3.2434 H         1 ACE         0.1994
    302 H         -99.3395   80.0817  -10.5763 H         1 ACE         0.1883
    303 H        -101.4779   81.9017   -9.7379 H         1 ACE         0.0800
    304 H        -101.4767   82.8843  -11.7331 H         1 ACE         0.0312
    305 H        -101.0711   81.3716  -12.6128 H         1 ACE         0.0312
    306 H         -98.9840   82.0167  -12.8692 H         1 ACE         0.0269
    307 H         -98.7815   82.2330  -11.0975 H         1 ACE         0.0269
    308 H        -100.1946   84.4638  -12.3640 H         1 ACE         0.0317
    309 H         -98.5712   84.1724  -13.0756 H         1 ACE         0.0317
    310 H         -98.8005   84.3285  -10.1282 H         1 ACE         0.0813
    311 H         -99.0332   85.8327  -11.0820 H         1 ACE         0.0813
    312 H         -96.8057   85.5688  -10.3501 H         1 ACE         0.1994
    313 H         -96.8677   85.4999  -11.9935 H         1 ACE         0.1994
    314 H         -96.6545   84.1215  -11.1194 H         1 ACE         0.1994
    315 H        -101.0497   78.4647  -10.3750 H         1 ACE         0.1875
    316 H        -102.5235   76.7314  -10.4250 H         1 ACE         0.0726
    317 H        -104.8772   76.8585  -10.4585 H         1 ACE         0.0305
    318 H        -104.8612   78.5285  -11.1200 H         1 ACE         0.0305
    319 H        -103.6832   78.9692   -8.7806 H         1 ACE         0.0269
    320 H        -104.6652   77.5264   -8.3558 H         1 ACE         0.0269
    321 H        -106.1041   79.6688   -9.7802 H         1 ACE         0.0317
    322 H        -105.4572   80.1135   -8.1645 H         1 ACE         0.0317
    323 H        -106.7076   78.3106   -7.1583 H         1 ACE         0.0813
    324 H        -107.3415   77.8412   -8.7722 H         1 ACE         0.0813
    325 H        -108.9141   78.9948   -7.4904 H         1 ACE         0.1994
    326 H        -108.5145   79.8784   -8.8204 H         1 ACE         0.1994
    327 H        -107.9336   80.3085   -7.3415 H         1 ACE         0.1994
@<TRIPOS>BOND
     1    1    2 2  
     2    1    3 1  
     3    4    1 am 
     4    5    4 1  
     5    6    5 1  
     6    5    8 1  
     7    6    7 2  
     8   12    6 am 
     9    8    9 1  
    10    9   10 2  
    11    9   11 am 
    12   13   12 1  
    13   14   13 1  
    14   13   16 1  
    15   14   15 2  
    16   26   14 am 
    17   16   17 1  
    18   17   18 2  
    19   17   19 1  
    20   18   20 1  
    21   19   21 ar 
    22   19   22 ar 
    23   21   20 1  
    24   21   23 ar 
    25   22   24 ar 
    26   23   25 ar 
    27   24   25 ar 
    28   27   26 1  
    29   28   27 1  
    30   27   30 1  
    31   28   29 2  
    32   37   28 am 
    33   30   31 1  
    34   31   32 ar 
    35   31   33 ar 
    36   32   34 ar 
    37   33   35 ar 
    38   34   36 ar 
    39   35   36 ar 
    40   38   37 1  
    41   39   38 1  
    42   38   41 1  
    43   39   40 2  
    44   45   39 am 
    45   41   42 1  
    46   42   43 2  
    47   42   44 am 
    48   46   45 1  
    49   47   46 1  
    50   46   49 1  
    51   47   48 2  
    52   53   47 am 
    53   49   50 1  
    54   49   51 1  
    55   50   52 1  
    56   54   53 1  
    57   55   54 1  
    58   54   57 1  
    59   55   56 2  
    60   60   55 am 
    61   57   58 1  
    62   57   59 1  
    63   61   60 1  
    64   62   61 1  
    65   61   64 1  
    66   62   63 2  
    67   68   62 am 
    68   64   65 1  
    69   65   66 2  
    70   65   67 am 
    71   69   68 1  
    72   69   70 1  
    73   69   72 1  
    74   73   69 1  
    75   70   71 1  
    76   71  103 1  
    77   73   74 2  
    78   75   73 am 
    79   76   75 1  
    80   77   76 1  
    81   76   79 1  
    82   77   78 2  
    83   83   77 am 
    84   79   80 1  
    85   80   81 1  
    86   80   82 1  
    87   84   83 1  
    88   85   84 1  
    89   84   87 1  
    90   85   86 2  
    91   98   85 am 
    92   87   88 1  
    93   88   89 2  
    94   88   90 1  
    95   89   91 1  
    96   90   92 ar 
    97   90   93 ar 
    98   92   91 1  
    99   92   94 ar 
   100   93   95 ar 
   101   94   96 ar 
   102   95   96 ar 
   103   97   99 2  
   104  100   97 1  
   105   97  106 am 
   106   98  100 1  
   107  100  101 1  
   108  100  105 1  
   109  101  104 1  
   110  103  102 1  
   111  102  104 1  
   112  106  107 1  
   113  107  108 1  
   114  107  110 1  
   115  108  109 2  
   116  108  114 am 
   117  110  111 1  
   118  110  112 1  
   119  111  113 1  
   120  114  115 1  
   121  115  116 1  
   122  115  118 1  
   123  116  117 2  
   124  116  135 am 
   125  118  119 1  
   126  119  120 1  
   127  120  121 am 
   128  121  122 1  
   129  121  129 2  
   130  122  123 1  
   131  123  124 am 
   132  124  125 2  
   133  124  126 1  
   134  126  127 1  
   135  126  128 1  
   136  127  131 1  
   137  131  130 1  
   138  130  132 ar 
   139  130  133 ar 
   140  130  134 ar 
   141  135  136 1  
   142  136  137 1  
   143  136  139 1  
   144  137  138 2  
   145  137  144 am 
   146  139  140 1  
   147  140  141 1  
   148  141  142 1  
   149  142  143 1  
   150  144  145 1  
   151  145  146 1  
   152  145  148 1  
   153  146  147 2  
   154  146  153 am 
   155  148  149 1  
   156  149  150 1  
   157  150  151 1  
   158  151  152 1  
   159  153  154 1  
   160  154  155 1  
   161  154  157 1  
   162  155  156 ar 
   163  155  162 ar 
   164  157  158 1  
   165  158  159 1  
   166  159  160 1  
   167  160  161 1  
   168    3  163 1  
   169    3  164 1  
   170    3  165 1  
   171    4  166 1  
   172    5  167 1  
   173    8  168 1  
   174    8  169 1  
   175   11  170 1  
   176   11  171 1  
   177   12  172 1  
   178   13  173 1  
   179   16  174 1  
   180   16  175 1  
   181   18  176 1  
   182   20  177 1  
   183   22  178 1  
   184   23  179 1  
   185   24  180 1  
   186   25  181 1  
   187   26  182 1  
   188   27  183 1  
   189   30  184 1  
   190   30  185 1  
   191   32  186 1  
   192   33  187 1  
   193   34  188 1  
   194   35  189 1  
   195   36  190 1  
   196   37  191 1  
   197   38  192 1  
   198   41  193 1  
   199   41  194 1  
   200   44  195 1  
   201   44  196 1  
   202   45  197 1  
   203   46  198 1  
   204   49  199 1  
   205   50  200 1  
   206   50  201 1  
   207   51  202 1  
   208   51  203 1  
   209   51  204 1  
   210   52  205 1  
   211   52  206 1  
   212   52  207 1  
   213   53  208 1  
   214   54  209 1  
   215   57  210 1  
   216   58  211 1  
   217   59  212 1  
   218   59  213 1  
   219   59  214 1  
   220   60  215 1  
   221   61  216 1  
   222   64  217 1  
   223   64  218 1  
   224   67  219 1  
   225   67  220 1  
   226   68  221 1  
   227   70  222 1  
   228   70  223 1  
   229   71  224 1  
   230   71  225 1  
   231   72  226 1  
   232   72  227 1  
   233   72  228 1  
   234   75  229 1  
   235   76  230 1  
   236   79  231 1  
   237   79  232 1  
   238   80  233 1  
   239   81  234 1  
   240   81  235 1  
   241   81  236 1  
   242   82  237 1  
   243   82  238 1  
   244   82  239 1  
   245   83  240 1  
   246   84  241 1  
   247   87  242 1  
   248   87  243 1  
   249   89  244 1  
   250   91  245 1  
   251   93  246 1  
   252   94  247 1  
   253   95  248 1  
   254   96  249 1  
   255   98  250 1  
   256  101  251 1  
   257  101  252 1  
   258  102  253 1  
   259  102  254 1  
   260  103  255 1  
   261  103  256 1  
   262  104  257 1  
   263  104  258 1  
   264  105  259 1  
   265  105  260 1  
   266  105  261 1  
   267  106  262 1  
   268  107  263 1  
   269  110  264 1  
   270  111  265 1  
   271  111  266 1  
   272  112  267 1  
   273  112  268 1  
   274  112  269 1  
   275  113  270 1  
   276  113  271 1  
   277  113  272 1  
   278  114  273 1  
   279  115  274 1  
   280  118  275 1  
   281  118  276 1  
   282  119  277 1  
   283  119  278 1  
   284  120  279 1  
   285  122  280 1  
   286  122  281 1  
   287  123  282 1  
   288  126  283 1  
   289  127  284 1  
   290  127  285 1  
   291  128  286 1  
   292  128  287 1  
   293  128  288 1  
   294  135  289 1  
   295  136  290 1  
   296  139  291 1  
   297  139  292 1  
   298  140  293 1  
   299  140  294 1  
   300  141  295 1  
   301  141  296 1  
   302  142  297 1  
   303  142  298 1  
   304  143  299 1  
   305  143  300 1  
   306  143  301 1  
   307  144  302 1  
   308  145  303 1  
   309  148  304 1  
   310  148  305 1  
   311  149  306 1  
   312  149  307 1  
   313  150  308 1  
   314  150  309 1  
   315  151  310 1  
   316  151  311 1  
   317  152  312 1  
   318  152  313 1  
   319  152  314 1  
   320  153  315 1  
   321  154  316 1  
   322  157  317 1  
   323  157  318 1  
   324  158  319 1  
   325  158  320 1  
   326  159  321 1  
   327  159  322 1  
   328  160  323 1  
   329  160  324 1  
   330  161  325 1  
   331  161  326 1  
   332  161  327 1  
@<TRIPOS>SUBSTRUCTURE
     1 ACE         1

