### 
### Created by X-TOOL on Sat Nov 28 16:08:47 2015
### 

@<TRIPOS>MOLECULE
4p4t_ligand
   41    43     1     0     0
SMALL
GAST_HUCK


@<TRIPOS>ATOM
      1 PB          9.2350   11.4800   85.5980 P.3       1 GDP         0.2069
      2 O1B         7.8290   11.3000   85.0650 O.co2     1 GDP        -0.5891
      3 O2B        10.0470   10.2110   85.5730 O.co2     1 GDP        -0.5891
      4 O3B         9.9370   12.7180   85.1150 O.co2     1 GDP        -0.5891
      5 O3A         8.9130   11.8400   87.1290 O.3       1 GDP        -0.1548
      6 PA          9.6450   11.2670   88.4530 P.3       1 GDP         0.3276
      7 O1A        11.0600   11.7850   88.4190 O.co2     1 GDP        -0.5556
      8 O2A         9.3990    9.7980   88.6870 O.co2     1 GDP        -0.5556
      9 O5'         8.7390   12.0980   89.4960 O.3       1 GDP        -0.2436
     10 C5'         8.6430   13.5260   89.4820 C.3       1 GDP         0.1132
     11 C4'         8.6840   14.0060   90.9320 C.3       1 GDP         0.1190
     12 O4'         7.4520   13.7020   91.6000 O.3       1 GDP        -0.3347
     13 C3'         9.7990   13.3440   91.7390 C.3       1 GDP         0.1151
     14 O3'        10.4590   14.3980   92.4270 O.3       1 GDP        -0.3864
     15 C2'         9.1150   12.4200   92.7330 C.3       1 GDP         0.1407
     16 O2'         9.7270   12.4410   94.0400 O.3       1 GDP        -0.3835
     17 C1'         7.7080   12.9960   92.8100 C.3       1 GDP         0.2218
     18 N9          6.6650   11.9700   93.0190 N.pl3     1 GDP        -0.0954
     19 C8          6.4020   10.8900   92.2470 C.2       1 GDP         0.1855
     20 N7          5.3580   10.1740   92.7500 N.2       1 GDP        -0.1929
     21 C5          4.9410   10.8120   93.8690 C.2       1 GDP         0.2558
     22 C6          3.8850   10.6060   94.8960 C.2       1 GDP         0.2628
     23 O6          3.1050    9.6270   94.8240 O.2       1 GDP        -0.3594
     24 N1          3.7900   11.5020   95.8970 N.am      1 GDP        -0.2478
     25 C2          4.6140   12.5660   96.0020 C.cat     1 GDP         0.2041
     26 N2          4.4500   13.4130   97.0430 N.pl3     1 GDP        -0.3327
     27 N3          5.5990   12.8250   95.0980 N.pl3     1 GDP        -0.1901
     28 C4          5.8020   11.9970   94.0370 C.2       1 GDP         0.3268
     29 H           7.6975   13.8338   89.0116 H         1 GDP         0.0648
     30 H           9.4875   13.9533   88.9215 H         1 GDP         0.0648
     31 H           8.8405   15.0948   90.9306 H         1 GDP         0.0651
     32 H          10.4982   12.7882   91.0970 H         1 GDP         0.0648
     33 H          11.1673   14.0394   92.9487 H         1 GDP         0.2100
     34 H           9.1031   11.3867   92.3560 H         1 GDP         0.0677
     35 H           9.2601   11.8476   94.6167 H         1 GDP         0.2101
     36 H           7.6673   13.7005   93.6538 H         1 GDP         0.1021
     37 H           6.9517   10.6283   91.3441 H         1 GDP         0.1823
     38 H           3.0807   11.3739   96.5902 H         1 GDP         0.1819
     39 H           5.0672   14.2315   97.1432 H         1 GDP         0.1774
     40 H           3.7078   13.2398   97.7359 H         1 GDP         0.1774
     41 H           6.1962   13.6555   95.2183 H         1 GDP         0.2519
@<TRIPOS>BOND
     1    1    2 ar 
     2    1    3 ar 
     3    1    4 ar 
     4    1    5 1  
     5    5    6 1  
     6    6    7 ar 
     7    6    8 ar 
     8    6    9 1  
     9    9   10 1  
    10   10   11 1  
    11   11   12 1  
    12   11   13 1  
    13   12   17 1  
    14   13   14 1  
    15   13   15 1  
    16   15   16 1  
    17   15   17 1  
    18   17   18 1  
    19   18   19 1  
    20   18   28 1  
    21   19   20 2  
    22   20   21 1  
    23   21   22 1  
    24   21   28 2  
    25   22   23 2  
    26   22   24 am 
    27   24   25 ar 
    28   25   26 ar 
    29   25   27 ar 
    30   27   28 1  
    31   10   29 1  
    32   10   30 1  
    33   11   31 1  
    34   13   32 1  
    35   14   33 1  
    36   15   34 1  
    37   16   35 1  
    38   17   36 1  
    39   19   37 1  
    40   24   38 1  
    41   26   39 1  
    42   26   40 1  
    43   27   41 1  
@<TRIPOS>SUBSTRUCTURE
     1 GDP         1

