### 
### Created by X-TOOL on Sun Nov 13 14:28:12 2016
### 

@<TRIPOS>MOLECULE
4r07_ligand
   68    73     1     0     0
SMALL
GAST_HUCK


@<TRIPOS>ATOM
      1 O4         26.9720   -8.4930   37.5540 O.2       1 UCG        -0.4124
      2 C7         27.9360   -7.8920   38.0130 C.2       1 UCG         0.1822
      3 C5         27.7750   -7.1870   39.1900 C.2       1 UCG         0.0062
      4 C6         28.8390   -6.5110   39.7520 C.2       1 UCG         0.0591
      5 N1         29.1140   -7.9270   37.4310 N.am      1 UCG        -0.1865
      6 C8         30.1230   -7.2760   37.9670 C.2       1 UCG         0.3328
      7 O5         31.1930   -7.3290   37.4230 O.2       1 UCG        -0.3815
      8 N          30.0210   -6.5470   39.1590 N.am      1 UCG        -0.1592
      9 C          31.1660   -5.8080   39.7080 C.3       1 UCG         0.2063
     10 C1         30.8520   -4.3240   39.8220 C.3       1 UCG         0.1440
     11 O2         31.9860   -3.5820   39.5060 O.3       1 UCG        -0.3832
     12 O          31.5280   -6.2220   41.0090 O.3       1 UCG        -0.3359
     13 C3         31.4730   -5.1360   41.9350 C.3       1 UCG         0.1235
     14 C4         30.9550   -5.6320   43.2730 C.3       1 UCG         0.1075
     15 O1         29.7020   -5.0740   43.5950 O.3       1 UCG        -0.2734
     16 P          28.4430   -5.9090   44.0450 P.3       1 UCG         0.2008
     17 O6         28.9170   -7.2290   44.4470 O.co2     1 UCG        -0.5537
     18 O7         27.6990   -5.2370   45.2750 O.co2     1 UCG        -0.5537
     19 O8         27.4030   -5.9650   42.8370 O.co2     1 UCG        -0.5537
     20 C2         30.6270   -4.0640   41.2740 C.3       1 UCG         0.1539
     21 O3         31.0800   -2.8050   41.6890 O.3       1 UCG        -0.2453
     22 P1         30.2190   -1.4880   41.6050 P.3       1 UCG         0.2557
     23 O15        31.0670   -0.4500   42.1140 O.co2     1 UCG        -0.6177
     24 O14        29.7490   -1.2850   40.1320 O.co2     1 UCG        -0.6177
     25 O11        28.9020   -1.6920   42.4430 O.3       1 UCG        -0.2514
     26 C18        28.8920   -1.8880   43.8340 C.3       1 UCG         0.1128
     27 C17        27.5040   -1.5670   44.3600 C.3       1 UCG         0.1247
     28 C16        26.4290   -2.1270   43.4630 C.3       1 UCG         0.1595
     29 P2         23.9940   -2.4300   43.4400 P.3       1 UCG         0.2562
     30 O16        23.6970   -3.4860   42.3300 O.co2     1 UCG        -0.6177
     31 O17        22.9050   -2.2010   44.3320 O.co2     1 UCG        -0.6177
     32 O12        24.4570   -1.1630   42.6850 O.3       1 UCG        -0.2419
     33 O13        25.3680   -2.7030   44.1630 O.3       1 UCG        -0.2449
     34 C15        25.8060   -0.9140   42.8630 C.3       1 UCG         0.1850
     35 O10        27.2960   -0.1770   44.3700 O.3       1 UCG        -0.3340
     36 C14        26.0000    0.0820   43.9490 C.3       1 UCG         0.2277
     37 N4         25.9190    1.4110   43.4010 N.pl3     1 UCG        -0.0950
     38 C13        25.1950    2.3850   43.8910 C.2       1 UCG         0.1855
     39 N5         25.3220    3.4890   43.1770 N.2       1 UCG        -0.1929
     40 C10        26.5520    1.8550   42.3570 C.2       1 UCG         0.3268
     41 C9         26.1450    3.2170   42.2030 C.2       1 UCG         0.2558
     42 N2         27.3980    1.3420   41.4780 N.pl3     1 UCG        -0.1901
     43 C12        27.8770    2.0760   40.4730 C.cat     1 UCG         0.2041
     44 N6         28.7290    1.5110   39.6250 N.pl3     1 UCG        -0.3327
     45 N3         27.5340    3.3440   40.3040 N.am      1 UCG        -0.2478
     46 C11        26.7050    3.9560   41.0910 C.2       1 UCG         0.2628
     47 O9         26.4060    5.1110   40.9290 O.2       1 UCG        -0.3594
     48 H1         26.8017   -7.1644   39.6779 H         1 UCG         0.0258
     49 H2         28.7064   -5.9519   40.6771 H         1 UCG         0.1178
     50 H3         29.2422   -8.4456   36.5856 H         1 UCG         0.2259
     51 H4         32.0219   -5.9534   39.0325 H         1 UCG         0.0997
     52 H5         29.9891   -4.0419   39.2009 H         1 UCG         0.0680
     53 H6         31.7873   -2.6559   39.5779 H         1 UCG         0.2101
     54 H7         32.4845   -4.7340   42.0937 H         1 UCG         0.0654
     55 H8         31.6771   -5.3587   44.0565 H         1 UCG         0.0639
     56 H9         30.8558   -6.7267   43.2315 H         1 UCG         0.0639
     57 H10        29.5625   -4.1729   41.5287 H         1 UCG         0.0712
     58 H11        29.6300   -1.2235   44.3070 H         1 UCG         0.0647
     59 H12        29.1416   -2.9347   44.0623 H         1 UCG         0.0647
     60 H13        27.3998   -1.9765   45.3756 H         1 UCG         0.0655
     61 H14        26.8477   -2.8214   42.7197 H         1 UCG         0.0716
     62 H15        26.2824   -0.6088   41.9197 H         1 UCG         0.0746
     63 H16        25.2702   -0.0462   44.7620 H         1 UCG         0.1026
     64 H17        24.5668    2.2964   44.7761 H         1 UCG         0.1823
     65 H18        27.6914    0.3591   41.5718 H         1 UCG         0.2519
     66 H19        29.1131    2.0569   38.8405 H         1 UCG         0.1774
     67 H20        29.0056    0.5270   39.7519 H         1 UCG         0.1774
     68 H21        27.9306    3.8501   39.5381 H         1 UCG         0.1819
@<TRIPOS>BOND
     1    2    1 2  
     2    3    2 1  
     3    5    2 am 
     4    4    3 2  
     5    8    4 1  
     6    6    5 am 
     7    6    7 2  
     8    8    6 am 
     9    9    8 1  
    10   10    9 1  
    11   12    9 1  
    12   10   11 1  
    13   20   10 1  
    14   13   12 1  
    15   13   14 1  
    16   20   13 1  
    17   14   15 1  
    18   15   16 1  
    19   16   17 ar 
    20   16   18 ar 
    21   16   19 ar 
    22   21   20 1  
    23   22   21 1  
    24   22   23 ar 
    25   22   24 ar 
    26   25   22 1  
    27   26   25 1  
    28   27   26 1  
    29   28   27 1  
    30   27   35 1  
    31   33   28 1  
    32   28   34 1  
    33   29   30 ar 
    34   29   31 ar 
    35   29   32 1  
    36   29   33 1  
    37   32   34 1  
    38   34   36 1  
    39   35   36 1  
    40   36   37 1  
    41   37   38 1  
    42   37   40 1  
    43   38   39 2  
    44   39   41 1  
    45   40   41 2  
    46   40   42 1  
    47   41   46 1  
    48   42   43 ar 
    49   43   44 ar 
    50   43   45 ar 
    51   45   46 am 
    52   46   47 2  
    53    3   48 1  
    54    4   49 1  
    55    5   50 1  
    56    9   51 1  
    57   10   52 1  
    58   11   53 1  
    59   13   54 1  
    60   14   55 1  
    61   14   56 1  
    62   20   57 1  
    63   26   58 1  
    64   26   59 1  
    65   27   60 1  
    66   28   61 1  
    67   34   62 1  
    68   36   63 1  
    69   38   64 1  
    70   42   65 1  
    71   44   66 1  
    72   44   67 1  
    73   45   68 1  
@<TRIPOS>SUBSTRUCTURE
     1 UCG         1

