### 
### Created by X-TOOL on Sun Nov 13 14:28:03 2016
### 

@<TRIPOS>MOLECULE
4v11_ligand
  131   131     1     0     0
SMALL
GAST_HUCK


@<TRIPOS>ATOM
      1 N         -10.7760   -8.1900   80.7080 N.4       1 SER         0.2396
      2 CA        -10.3040   -8.0080   79.3420 C.3       1 SER         0.0885
      3 C         -10.9700   -6.7990   78.6920 C.2       1 SER         0.2291
      4 O         -12.1670   -6.5760   78.8730 O.2       1 SER        -0.3906
      5 CB        -10.5800   -9.2590   78.5220 C.3       1 SER         0.1041
      6 OG        -10.4180  -10.4150   79.3250 O.3       1 SER        -0.3870
      7 N         -10.1970   -6.0230   77.9400 N.am      1 SER        -0.2594
      8 CA        -10.7210   -4.8140   77.3180 C.3       1 SER         0.1424
      9 C         -11.2250   -5.0910   75.9130 C.2       1 SER         0.2056
     10 O         -10.6090   -5.8600   75.1760 O.2       1 SER        -0.3943
     11 CB         -9.6480   -3.7330   77.2440 C.3       1 SER         0.0406
     12 CG         -9.1400   -3.3100   78.6050 C.2       1 SER         0.0393
     13 OD1        -9.9230   -3.3100   79.5840 O.co2     1 SER        -0.5688
     14 OD2        -7.9500   -2.9580   78.6820 O.co2     1 SER        -0.5688
     15 N         -12.3280   -4.4520   75.5360 N.am      1 SER        -0.2639
     16 CA        -12.7660   -4.4730   74.1420 C.3       1 SER         0.1282
     17 C         -11.8120   -3.6120   73.3290 C.2       1 SER         0.2037
     18 O         -11.6010   -2.4420   73.6450 O.2       1 SER        -0.3944
     19 CB        -14.1910   -3.9730   74.0060 C.3       1 SER        -0.0244
     20 N         -11.2230   -4.2130   72.3000 N.am      1 SER        -0.2611
     21 CA        -10.2750   -3.5430   71.4050 C.3       1 SER         0.1612
     22 CB         -9.7450   -4.5610   70.3930 C.3       1 SER         0.1262
     23 CG2        -8.6930   -3.8840   69.5170 C.3       1 SER        -0.0298
     24 OG1        -9.1430   -5.6150   71.1370 O.3       1 SER        -0.2685
     25 P          -9.9350   -7.0230   70.9920 P.3       1 SER         0.2014
     26 O1P       -10.1440   -7.3500   69.5590 O.co2     1 SER        -0.5537
     27 O2P        -9.0130   -8.1290   71.6810 O.co2     1 SER        -0.5537
     28 O3P       -11.3280   -6.8800   71.7560 O.co2     1 SER        -0.5537
     29 C         -10.8770   -2.3410   70.6760 C.2       1 SER         0.2068
     30 O         -11.8610   -2.4790   69.9640 O.2       1 SER        -0.3943
     31 N         -10.2840   -1.1590   70.8540 N.am      1 SER        -0.2635
     32 CA        -10.7680    0.0300   70.1630 C.3       1 SER         0.1325
     33 C         -10.4520   -0.0030   68.6700 C.2       1 SER         0.2038
     34 O          -9.4910   -0.6490   68.2540 O.2       1 SER        -0.3944
     35 CB        -10.1680    1.2880   70.7880 C.3       1 SER        -0.0008
     36 CG        -10.9060    1.7270   72.0490 C.3       1 SER         0.0044
     37 CD        -10.3460    3.0050   72.6380 C.2       1 SER         0.0350
     38 OE1        -9.1060    3.1370   72.6990 O.co2     1 SER        -0.5690
     39 OE2       -11.1490    3.8750   73.0350 O.co2     1 SER        -0.5690
     40 N         -11.2770    0.6850   67.8770 N.am      1 SER        -0.2664
     41 CA        -11.0480    0.8260   66.4500 C.3       1 SER         0.1201
     42 C         -10.3430    2.1240   66.1000 C.2       1 SER         0.2008
     43 O          -9.6800    2.7350   66.9440 O.2       1 SER        -0.3947
     44 N         -10.4830    2.5610   64.8530 N.am      1 SER        -0.2627
     45 CA         -9.7050    3.7010   64.3830 C.3       1 SER         0.1369
     46 C         -10.1280    5.0020   65.0620 C.2       1 SER         0.2054
     47 O         -11.2280    5.1080   65.6120 O.2       1 SER        -0.3942
     48 CB         -9.8130    3.8460   62.8570 C.3       1 SER         0.0145
     49 CG        -11.2100    4.0660   62.3680 C.2       1 SER        -0.0027
     50 ND1       -11.8680    5.2710   62.5110 N.2       1 SER        -0.3252
     51 CD2       -12.0800    3.2320   61.7520 C.2       1 SER         0.0291
     52 CE1       -13.0820    5.1680   61.9980 C.2       1 SER         0.0907
     53 NE2       -13.2350    3.9420   61.5310 N.pl3     1 SER        -0.2752
     54 N          -9.2270    5.9730   65.0260 N.am      1 SER        -0.2621
     55 CA         -9.4970    7.3220   65.5230 C.3       1 SER         0.1423
     56 C         -10.7570    7.9100   64.8840 C.2       1 SER         0.2056
     57 O         -11.0210    7.6910   63.7060 O.2       1 SER        -0.3943
     58 CB         -8.3220    8.2520   65.2290 C.3       1 SER         0.0406
     59 CG         -7.0310    7.8130   65.9010 C.2       1 SER         0.0393
     60 OD1        -7.0950    7.0500   66.8910 O.co2     1 SER        -0.5688
     61 OD2        -5.9530    8.2610   65.4350 O.co2     1 SER        -0.5688
     62 N         -11.5110    8.6740   65.6620 N.am      1 SER        -0.2635
     63 CA        -12.7120    9.3390   65.1610 C.3       1 SER         0.1324
     64 C         -12.5160   10.8490   65.0660 C.2       1 SER         0.2035
     65 O         -13.3570   11.5630   64.5250 O.2       1 SER        -0.3944
     66 CB        -13.9050    9.0270   66.0580 C.3       1 SER        -0.0008
     67 CG        -14.3180    7.5640   66.0520 C.3       1 SER         0.0044
     68 CD        -15.0610    7.1640   64.7870 C.2       1 SER         0.0350
     69 OE1       -15.3330    8.0420   63.9370 O.co2     1 SER        -0.5690
     70 OE2       -15.3770    5.9630   64.6430 O.co2     1 SER        -0.5690
     71 N         -11.4060   11.3260   65.6150 N.am      1 SER        -0.2679
     72 CA        -11.0280   12.7320   65.5150 C.3       1 SER         0.1057
     73 C          -9.5390   12.8770   65.7700 C.2       1 SER         0.0618
     74 O          -8.8490   11.8600   65.8270 O.co2     1 SER        -0.5665
     75 CB        -11.8210   13.5970   66.4960 C.3       1 SER         0.0351
     76 CG        -11.8270   13.0410   67.9140 C.2       1 SER         0.0387
     77 OD1       -10.8480   12.3850   68.3360 O.co2     1 SER        -0.5688
     78 OD2       -12.8270   13.2840   68.6260 O.co2     1 SER        -0.5688
     79 OXT        -9.0110   13.9820   65.9230 O.co2     1 SER        -0.5665
     80 H1        -10.3230   -8.9928   81.1158 H         1 SER         0.2016
     81 H2        -11.7736   -8.3339   80.7024 H         1 SER         0.2016
     82 H3        -10.5579   -7.3693   81.2510 H         1 SER         0.2016
     83 H4         -9.2178   -7.8365   79.3679 H         1 SER         0.1122
     84 H5         -9.8772   -9.3021   77.6769 H         1 SER         0.0640
     85 H6        -11.6110   -9.2233   78.1402 H         1 SER         0.0640
     86 H7        -10.5928  -11.1890   78.8027 H         1 SER         0.2099
     87 H8         -9.2391   -6.2729   77.7984 H         1 SER         0.1886
     88 H9        -11.5578   -4.4445   77.9289 H         1 SER         0.0819
     89 H10       -10.0717   -2.8525   76.7389 H         1 SER         0.0478
     90 H11        -8.8009   -4.1194   76.6583 H         1 SER         0.0478
     91 H12       -12.8647   -3.9507   76.2147 H         1 SER         0.1883
     92 H13       -12.7226   -5.5070   73.7693 H         1 SER         0.0797
     93 H14       -14.4900   -4.0011   72.9478 H         1 SER         0.0277
     94 H15       -14.2540   -2.9395   74.3775 H         1 SER         0.0277
     95 H16       -14.8628   -4.6156   74.5940 H         1 SER         0.0277
     96 H17       -11.4383   -5.1741   72.1271 H         1 SER         0.1884
     97 H18        -9.4328   -3.1797   72.0123 H         1 SER         0.0830
     98 H19       -10.5634   -4.9495   69.7691 H         1 SER         0.0695
     99 H20        -8.3047   -4.6075   68.7850 H         1 SER         0.0260
    100 H21        -7.8679   -3.5223   70.1481 H         1 SER         0.0260
    101 H22        -9.1487   -3.0347   68.9869 H         1 SER         0.0260
    102 H23        -9.4984   -1.0879   71.4686 H         1 SER         0.1883
    103 H24       -11.8610    0.0697   70.2804 H         1 SER         0.0801
    104 H25       -10.2139    2.1035   70.0513 H         1 SER         0.0330
    105 H26        -9.1181    1.0863   71.0467 H         1 SER         0.0330
    106 H27       -10.8249    0.9279   72.8006 H         1 SER         0.0433
    107 H28       -11.9648    1.8891   71.7989 H         1 SER         0.0433
    108 H29       -12.0823    1.1192   68.2807 H         1 SER         0.1881
    109 H30       -12.0185    0.8011   65.9328 H         1 SER         0.0763
    110 H31       -10.4281   -0.0156   66.1073 H         1 SER         0.0763
    111 H32       -11.1242    2.1064   64.2347 H         1 SER         0.1884
    112 H33        -8.6508    3.5145   64.6357 H         1 SER         0.0817
    113 H34        -9.4239    2.9276   62.3931 H         1 SER         0.0420
    114 H35        -9.1978    4.7031   62.5458 H         1 SER         0.0420
    115 H36       -11.8984    2.1927   61.4821 H         1 SER         0.0729
    116 H37       -13.8291    5.9596   61.9659 H         1 SER         0.1199
    117 H38       -14.0834    3.5772   61.0748 H         1 SER         0.2361
    118 H39        -8.3247    5.7753   64.6430 H         1 SER         0.1884
    119 H40        -9.6445    7.2672   66.6117 H         1 SER         0.0819
    120 H41        -8.5765    9.2610   65.5854 H         1 SER         0.0478
    121 H42        -8.1593    8.2774   64.1414 H         1 SER         0.0478
    122 H43       -11.2504    8.7989   66.6193 H         1 SER         0.1883
    123 H44       -12.9228    8.9538   64.1525 H         1 SER         0.0801
    124 H45       -14.7604    9.6291   65.7177 H         1 SER         0.0330
    125 H46       -13.6454    9.3087   67.0891 H         1 SER         0.0330
    126 H47       -14.9730    7.3806   66.9165 H         1 SER         0.0433
    127 H48       -13.4138    6.9437   66.1389 H         1 SER         0.0433
    128 H49       -10.8075   10.6999   66.1148 H         1 SER         0.1876
    129 H50       -11.2461   13.0792   64.4943 H         1 SER         0.0745
    130 H51       -12.8603   13.6643   66.1422 H         1 SER         0.0471
    131 H52       -11.3747   14.6022   66.5162 H         1 SER         0.0471
@<TRIPOS>BOND
     1    1    2 1  
     2    2    3 1  
     3    2    5 1  
     4    3    4 2  
     5    3    7 am 
     6    5    6 1  
     7    7    8 1  
     8    8    9 1  
     9    8   11 1  
    10    9   10 2  
    11    9   15 am 
    12   11   12 1  
    13   12   13 ar 
    14   12   14 ar 
    15   15   16 1  
    16   16   17 1  
    17   16   19 1  
    18   17   18 2  
    19   17   20 am 
    20   20   21 1  
    21   21   22 1  
    22   21   29 1  
    23   22   23 1  
    24   22   24 1  
    25   24   25 1  
    26   25   26 ar 
    27   25   27 ar 
    28   25   28 ar 
    29   29   30 2  
    30   29   31 am 
    31   31   32 1  
    32   32   33 1  
    33   32   35 1  
    34   33   34 2  
    35   33   40 am 
    36   35   36 1  
    37   36   37 1  
    38   37   38 ar 
    39   37   39 ar 
    40   40   41 1  
    41   41   42 1  
    42   42   43 2  
    43   42   44 am 
    44   44   45 1  
    45   45   46 1  
    46   45   48 1  
    47   46   47 2  
    48   46   54 am 
    49   48   49 1  
    50   49   50 1  
    51   49   51 2  
    52   50   52 2  
    53   51   53 1  
    54   52   53 1  
    55   54   55 1  
    56   55   56 1  
    57   55   58 1  
    58   56   57 2  
    59   56   62 am 
    60   58   59 1  
    61   59   60 ar 
    62   59   61 ar 
    63   62   63 1  
    64   63   64 1  
    65   63   66 1  
    66   64   65 2  
    67   64   71 am 
    68   66   67 1  
    69   67   68 1  
    70   68   69 ar 
    71   68   70 ar 
    72   71   72 1  
    73   72   73 1  
    74   72   75 1  
    75   73   74 ar 
    76   73   79 ar 
    77   75   76 1  
    78   76   77 ar 
    79   76   78 ar 
    80    1   80 1  
    81    1   81 1  
    82    1   82 1  
    83    2   83 1  
    84    5   84 1  
    85    5   85 1  
    86    6   86 1  
    87    7   87 1  
    88    8   88 1  
    89   11   89 1  
    90   11   90 1  
    91   15   91 1  
    92   16   92 1  
    93   19   93 1  
    94   19   94 1  
    95   19   95 1  
    96   20   96 1  
    97   21   97 1  
    98   22   98 1  
    99   23   99 1  
   100   23  100 1  
   101   23  101 1  
   102   31  102 1  
   103   32  103 1  
   104   35  104 1  
   105   35  105 1  
   106   36  106 1  
   107   36  107 1  
   108   40  108 1  
   109   41  109 1  
   110   41  110 1  
   111   44  111 1  
   112   45  112 1  
   113   48  113 1  
   114   48  114 1  
   115   51  115 1  
   116   52  116 1  
   117   53  117 1  
   118   54  118 1  
   119   55  119 1  
   120   58  120 1  
   121   58  121 1  
   122   62  122 1  
   123   63  123 1  
   124   66  124 1  
   125   66  125 1  
   126   67  126 1  
   127   67  127 1  
   128   71  128 1  
   129   72  129 1  
   130   75  130 1  
   131   75  131 1  
@<TRIPOS>SUBSTRUCTURE
     1 SER         1

