### 
### Created by X-TOOL on Sun Nov 13 14:25:45 2016
### 

@<TRIPOS>MOLECULE
5ab0_ligand
  188   192     1     0     0
SMALL
GAST_HUCK


@<TRIPOS>ATOM
      1 C6         16.6320    3.5890    3.1400 C.3       1 MOL        -0.0124
      2 C8         15.7400    2.3460    3.2100 C.ar      1 MOL        -0.0428
      3 C3         18.3310    4.6300    1.8660 C.3       1 MOL         0.0391
      4 O11        20.8040    5.6740    1.8120 O.co2     1 MOL        -0.6154
      5 P11        20.1000    4.4110    1.8860 P.3       1 MOL         0.0381
      6 O12        20.5420    3.5090    0.8470 O.co2     1 MOL        -0.6154
      7 N10        17.8800    5.2650    0.8450 N.4       1 MOL         0.2337
      8 C1         17.7100    3.4220    2.0630 C.3       1 MOL         0.0167
      9 C17        16.0190    1.1890    3.9300 C.ar      1 MOL        -0.0603
     10 C18        15.1120    0.1070    3.9300 C.ar      1 MOL        -0.0686
     11 C19        13.9360    0.1300    3.2630 C.ar      1 MOL        -0.0687
     12 C20        13.6390    1.2960    2.5410 C.ar      1 MOL        -0.0686
     13 C21        14.5380    2.3840    2.5280 C.ar      1 MOL        -0.0603
     14 CA         21.5380    2.6670    3.1580 C.3       1 MOL         0.0649
     15 C          21.2850    1.7090    4.3150 C.2       1 MOL         0.1828
     16 O          22.0910    1.6090    5.2070 O.2       1 MOL        -0.3966
     17 C8         22.8890    3.4270    3.4380 C.3       1 MOL        -0.0294
     18 C9         24.1880    2.6410    3.2460 C.3       1 MOL        -0.0443
     19 C10        25.3910    3.5600    3.1520 C.3       1 MOL        -0.0625
     20 C11        24.0250    1.8810    1.9200 C.3       1 MOL        -0.0625
     21 C6         20.4250    3.7410    3.2870 C.3       1 MOL         0.0382
     22 N          20.0570    0.9640    4.3340 N.am      1 MOL        -0.2654
     23 CA         19.7840   -0.0250    5.4040 C.3       1 MOL         0.1309
     24 C          20.8850   -1.0730    5.4320 C.2       1 MOL         0.2040
     25 O          21.0960   -1.7230    6.4530 O.2       1 MOL        -0.3944
     26 CB         18.4160   -0.7160    5.2500 C.3       1 MOL        -0.0122
     27 CG         18.0930   -1.2120    3.8450 C.3       1 MOL        -0.0440
     28 CD         18.7050   -2.5280    3.5390 C.3       1 MOL        -0.0124
     29 CE         18.5170   -2.8510    2.0850 C.3       1 MOL        -0.0354
     30 NZ         18.8020   -1.6230    1.2890 N.4       1 MOL         0.2185
     31 N          21.5980   -1.2080    4.3140 N.am      1 MOL        -0.2625
     32 CA         22.8930   -1.8610    4.2700 C.3       1 MOL         0.1369
     33 C          23.8160   -1.3080    5.3600 C.2       1 MOL         0.2055
     34 O          25.0030   -1.1180    5.1260 O.2       1 MOL        -0.3942
     35 CB         23.5530   -1.6800    2.8840 C.3       1 MOL         0.0145
     36 CG         22.8730   -2.4310    1.7730 C.2       1 MOL        -0.0027
     37 ND1        21.6710   -2.0320    1.2270 N.2       1 MOL        -0.3252
     38 CD2        23.2330   -3.5560    1.1020 C.2       1 MOL         0.0291
     39 CE1        21.3130   -2.8860    0.2790 C.2       1 MOL         0.0907
     40 NE2        22.2450   -3.8180    0.1800 N.pl3     1 MOL        -0.2752
     41 N          23.2630   -1.0640    6.5490 N.am      1 MOL        -0.2624
     42 CA         24.0180   -0.9060    7.7820 C.3       1 MOL         0.1369
     43 C          24.9860   -2.0660    7.9420 C.2       1 MOL         0.2054
     44 O          25.9290   -1.9650    8.7090 O.2       1 MOL        -0.3942
     45 CB         23.0910   -0.8390    9.0070 C.3       1 MOL         0.0145
     46 CG         23.7740   -1.1840   10.2960 C.2       1 MOL        -0.0027
     47 ND1        24.9010   -0.5170   10.7410 N.2       1 MOL        -0.3252
     48 CD2        23.5170   -2.1470   11.2180 C.2       1 MOL         0.0291
     49 CE1        25.2940   -1.0410   11.8910 C.2       1 MOL         0.0907
     50 NE2        24.4700   -2.0300   12.2030 N.pl3     1 MOL        -0.2752
     51 N          24.7420   -3.1610    7.2230 N.am      1 MOL        -0.2639
     52 CA         25.6070   -4.3360    7.2610 C.3       1 MOL         0.1282
     53 C          26.8610   -4.2570    6.3540 C.2       1 MOL         0.2037
     54 O          26.7030   -4.2720    5.1210 O.2       1 MOL        -0.3944
     55 CB         24.7870   -5.6060    6.9100 C.3       1 MOL        -0.0244
     56 N          28.0970   -4.1600    6.8900 N.am      1 MOL        -0.2619
     57 CA         28.5390   -3.7710    8.2640 C.3       1 MOL         0.1404
     58 C          27.6680   -4.1400    9.5060 C.2       1 MOL         0.2060
     59 O          27.5210   -3.3420   10.4330 O.2       1 MOL        -0.3942
     60 CB         28.7870   -2.2450    8.2290 C.3       1 MOL         0.0214
     61 CG         29.6380   -1.6890    9.3690 C.ar      1 MOL        -0.0386
     62 CD1        31.0220   -1.8850    9.3920 C.ar      1 MOL        -0.0601
     63 CD2        29.0530   -0.8900   10.3690 C.ar      1 MOL        -0.0601
     64 CE1        31.8090   -1.3330   10.4190 C.ar      1 MOL        -0.0686
     65 CE2        29.8180   -0.3350   11.4100 C.ar      1 MOL        -0.0686
     66 CZ         31.2010   -0.5520   11.4360 C.ar      1 MOL        -0.0687
     67 N          27.0970   -5.3440    9.5320 N.am      1 MOL        -0.2614
     68 CA         26.2050   -5.7140   10.6270 C.3       1 MOL         0.1539
     69 C          27.1000   -5.8630   11.8480 C.2       1 MOL         0.2063
     70 O          26.9480   -5.1400   12.8440 O.2       1 MOL        -0.3943
     71 CB         25.4230   -7.0000   10.3140 C.3       1 MOL         0.0843
     72 OG         25.9750   -7.7030    9.2060 O.3       1 MOL        -0.3903
     73 N          28.0500   -6.7890   11.7330 N.am      1 MOL        -0.2619
     74 CA         29.2270   -6.8420   12.5930 C.3       1 MOL         0.1404
     75 C          30.4280   -7.2310   11.7410 C.2       1 MOL         0.2060
     76 O          30.6710   -6.6020   10.7030 O.2       1 MOL        -0.3942
     77 CB         29.0300   -7.8190   13.7510 C.3       1 MOL         0.0214
     78 CG         28.3030   -7.2190   14.9090 C.ar      1 MOL        -0.0386
     79 CD1        28.5050   -5.9000   15.2460 C.ar      1 MOL        -0.0601
     80 CD2        27.4090   -7.9610   15.6490 C.ar      1 MOL        -0.0601
     81 CE1        27.8280   -5.3350   16.2930 C.ar      1 MOL        -0.0686
     82 CE2        26.7380   -7.4020   16.7020 C.ar      1 MOL        -0.0686
     83 CZ         26.9400   -6.0920   17.0220 C.ar      1 MOL        -0.0687
     84 N          31.1670   -8.2590   12.1690 N.am      1 MOL        -0.2636
     85 CA         32.3460   -8.7650   11.3880 C.3       1 MOL         0.1306
     86 CB         33.4880   -9.2270   12.3090 C.3       1 MOL        -0.0122
     87 CG         34.8790   -9.2010   11.6470 C.3       1 MOL        -0.0440
     88 CD         35.0430   -8.1120   10.5730 C.3       1 MOL        -0.0124
     89 CE         35.2340   -8.7100    9.1700 C.3       1 MOL        -0.0354
     90 NZ         36.6720   -9.0260    8.9220 N.4       1 MOL         0.2185
     91 C          31.9440   -9.8400   10.4020 C.2       1 MOL         0.1992
     92 O          30.9920   -9.6430    9.6490 O.2       1 MOL        -0.3947
     93 NT         32.6680  -11.0680   10.3450 N.am      1 MOL        -0.2990
     94 H1         17.1168    3.7411    4.1156 H         1 MOL         0.0428
     95 H2         16.0124    4.4650    2.8979 H         1 MOL         0.0428
     96 H3         18.0872    5.2556    2.7373 H         1 MOL         0.1066
     97 H4         16.8774    5.3433    0.9140 H         1 MOL         0.2013
     98 H5         18.1208    4.7638    0.0043 H         1 MOL         0.2013
     99 H6         18.2877    6.1864    0.8153 H         1 MOL         0.2013
    100 H7         17.2452    3.0881    1.1236 H         1 MOL         0.0359
    101 H8         18.4486    2.6762    2.3920 H         1 MOL         0.0359
    102 H9         16.9407    1.1175    4.4960 H         1 MOL         0.0557
    103 H10        15.3705   -0.7838    4.4909 H         1 MOL         0.0599
    104 H11        13.2546   -0.7128    3.2850 H         1 MOL         0.0559
    105 H12        12.7093    1.3618    1.9874 H         1 MOL         0.0599
    106 H13        14.2786    3.2747    1.9673 H         1 MOL         0.0557
    107 H14        21.5371    2.1595    2.1821 H         1 MOL         0.0554
    108 H15        22.8634    3.7734    4.4817 H         1 MOL         0.0295
    109 H16        22.9255    4.2957    2.7641 H         1 MOL         0.0295
    110 H17        24.3303    1.9375    4.0796 H         1 MOL         0.0297
    111 H18        26.3019    2.9587    3.0148 H         1 MOL         0.0232
    112 H19        25.4761    4.1485    4.0774 H         1 MOL         0.0232
    113 H20        25.2676    4.2392    2.2956 H         1 MOL         0.0232
    114 H21        23.1532    1.2134    1.9848 H         1 MOL         0.0232
    115 H22        24.9291    1.2855    1.7251 H         1 MOL         0.0232
    116 H23        23.8760    2.6001    1.1011 H         1 MOL         0.0232
    117 H24        19.5127    3.2656    3.6763 H         1 MOL         0.0495
    118 H25        20.7597    4.5205    3.9872 H         1 MOL         0.0495
    119 H26        19.3774    1.1145    3.6160 H         1 MOL         0.1883
    120 H27        19.7861    0.5095    6.3654 H         1 MOL         0.0800
    121 H28        17.6369    0.0025    5.5445 H         1 MOL         0.0312
    122 H29        18.3932   -1.5807    5.9295 H         1 MOL         0.0312
    123 H30        18.4661   -0.4748    3.1188 H         1 MOL         0.0269
    124 H31        17.0011   -1.3024    3.7477 H         1 MOL         0.0269
    125 H32        18.2241   -3.3054    4.1508 H         1 MOL         0.0317
    126 H33        19.7801   -2.4931    3.7691 H         1 MOL         0.0317
    127 H34        17.4813   -3.1764    1.9077 H         1 MOL         0.0813
    128 H35        19.2091   -3.6535    1.7903 H         1 MOL         0.0813
    129 H36        18.6803   -1.8225    0.3085 H         1 MOL         0.1994
    130 H37        19.7508   -1.3268    1.4563 H         1 MOL         0.1994
    131 H38        18.1675   -0.8896    1.5639 H         1 MOL         0.1994
    132 H39        21.2218   -0.8410    3.4633 H         1 MOL         0.1885
    133 H40        22.7450   -2.9362    4.4490 H         1 MOL         0.0817
    134 H41        24.5939   -2.0296    2.9496 H         1 MOL         0.0420
    135 H42        23.5410   -0.6089    2.6337 H         1 MOL         0.0420
    136 H43        24.1364   -4.1423    1.2637 H         1 MOL         0.0729
    137 H44        20.4040   -2.8294   -0.3180 H         1 MOL         0.1199
    138 H45        22.2338   -4.6099   -0.4786 H         1 MOL         0.2361
    139 H46        22.2672   -0.9848    6.5956 H         1 MOL         0.1885
    140 H47        24.5904    0.0315    7.7239 H         1 MOL         0.0817
    141 H48        22.2608   -1.5441    8.8538 H         1 MOL         0.0420
    142 H49        22.6936    0.1836    9.0869 H         1 MOL         0.0420
    143 H50        22.7081   -2.8754   11.1841 H         1 MOL         0.0729
    144 H51        26.1494   -0.7145   12.4806 H         1 MOL         0.1199
    145 H52        24.5327   -2.6169   13.0471 H         1 MOL         0.2361
    146 H53        23.9341   -3.1784    6.6339 H         1 MOL         0.1883
    147 H54        25.9650   -4.4375    8.2962 H         1 MOL         0.0797
    148 H55        25.4448   -6.4872    6.9405 H         1 MOL         0.0277
    149 H56        24.3618   -5.5007    5.9010 H         1 MOL         0.0277
    150 H57        23.9733   -5.7304    7.6397 H         1 MOL         0.0277
    151 H58        28.8416   -4.3865    6.2621 H         1 MOL         0.1885
    152 H59        29.5051   -4.2716    8.4256 H         1 MOL         0.0823
    153 H60        27.8091   -1.7423    8.2603 H         1 MOL         0.0474
    154 H61        29.2922   -2.0057    7.2816 H         1 MOL         0.0474
    155 H62        31.4938   -2.4687    8.6099 H         1 MOL         0.0557
    156 H63        27.9867   -0.6978   10.3359 H         1 MOL         0.0557
    157 H64        32.8793   -1.5041   10.4336 H         1 MOL         0.0599
    158 H65        29.3418    0.2550   12.1847 H         1 MOL         0.0599
    159 H66        31.8044   -0.1255   12.2291 H         1 MOL         0.0559
    160 H67        27.2805   -5.9974    8.7976 H         1 MOL         0.1884
    161 H68        25.4804   -4.9050   10.8011 H         1 MOL         0.0823
    162 H69        24.3808   -6.7347   10.0828 H         1 MOL         0.0606
    163 H70        25.4473   -7.6545   11.1977 H         1 MOL         0.0606
    164 H71        25.4655   -8.4886    9.0452 H         1 MOL         0.2097
    165 H72        27.9515   -7.4837   11.0205 H         1 MOL         0.1885
    166 H73        29.4015   -5.8412   13.0148 H         1 MOL         0.0823
    167 H74        30.0185   -8.1566   14.0957 H         1 MOL         0.0474
    168 H75        28.4543   -8.6823   13.3861 H         1 MOL         0.0474
    169 H76        29.2075   -5.3024   14.6764 H         1 MOL         0.0557
    170 H77        27.2351   -9.0001   15.3940 H         1 MOL         0.0557
    171 H78        27.9911   -4.2939   16.5471 H         1 MOL         0.0599
    172 H79        26.0454   -8.0008   17.2823 H         1 MOL         0.0599
    173 H80        26.4010   -5.6471   17.8506 H         1 MOL         0.0559
    174 H81        30.9286   -8.7033   13.0326 H         1 MOL         0.1883
    175 H82        32.7303   -7.9180   10.8008 H         1 MOL         0.0800
    176 H83        33.2774  -10.2578   12.6301 H         1 MOL         0.0312
    177 H84        33.5115   -8.5665   13.1883 H         1 MOL         0.0312
    178 H85        35.0561  -10.1795   11.1767 H         1 MOL         0.0269
    179 H86        35.6315   -9.0293   12.4308 H         1 MOL         0.0269
    180 H87        35.9223   -7.4991   10.8203 H         1 MOL         0.0317
    181 H88        34.1437   -7.4786   10.5694 H         1 MOL         0.0317
    182 H89        34.8889   -7.9848    8.4184 H         1 MOL         0.0813
    183 H90        34.6420   -9.6334    9.0875 H         1 MOL         0.0813
    184 H91        36.7758   -9.4164    7.9985 H         1 MOL         0.1994
    185 H92        36.9924   -9.6929    9.6066 H         1 MOL         0.1994
    186 H93        37.2187   -8.1821    8.9934 H         1 MOL         0.1994
    187 H94        32.4000  -11.7766    9.6923 H         1 MOL         0.1815
    188 H95        33.4435  -11.2201   10.9577 H         1 MOL         0.1815
@<TRIPOS>BOND
     1    1    2 1  
     2    8    1 1  
     3    2    9 ar 
     4    2   13 ar 
     5    5    3 1  
     6    3    7 1  
     7    3    8 1  
     8    5    4 ar 
     9    5    6 ar 
    10   21    5 1  
    11    9   10 ar 
    12   10   11 ar 
    13   12   11 ar 
    14   13   12 ar 
    15   14   15 1  
    16   14   17 1  
    17   14   21 1  
    18   15   16 2  
    19   15   22 am 
    20   17   18 1  
    21   18   19 1  
    22   18   20 1  
    23   22   23 1  
    24   23   24 1  
    25   23   26 1  
    26   24   25 2  
    27   24   31 am 
    28   26   27 1  
    29   27   28 1  
    30   28   29 1  
    31   29   30 1  
    32   31   32 1  
    33   32   33 1  
    34   32   35 1  
    35   33   34 2  
    36   33   41 am 
    37   35   36 1  
    38   36   37 1  
    39   36   38 2  
    40   37   39 2  
    41   38   40 1  
    42   39   40 1  
    43   41   42 1  
    44   42   43 1  
    45   42   45 1  
    46   43   44 2  
    47   43   51 am 
    48   45   46 1  
    49   46   47 1  
    50   46   48 2  
    51   47   49 2  
    52   48   50 1  
    53   49   50 1  
    54   51   52 1  
    55   52   53 1  
    56   52   55 1  
    57   53   54 2  
    58   53   56 am 
    59   56   57 1  
    60   57   58 1  
    61   57   60 1  
    62   58   59 2  
    63   58   67 am 
    64   60   61 1  
    65   61   62 ar 
    66   61   63 ar 
    67   62   64 ar 
    68   63   65 ar 
    69   64   66 ar 
    70   65   66 ar 
    71   67   68 1  
    72   68   69 1  
    73   68   71 1  
    74   69   70 2  
    75   69   73 am 
    76   71   72 1  
    77   73   74 1  
    78   74   75 1  
    79   74   77 1  
    80   75   76 2  
    81   75   84 am 
    82   77   78 1  
    83   78   79 ar 
    84   78   80 ar 
    85   79   81 ar 
    86   80   82 ar 
    87   81   83 ar 
    88   82   83 ar 
    89   84   85 1  
    90   85   86 1  
    91   85   91 1  
    92   86   87 1  
    93   87   88 1  
    94   88   89 1  
    95   89   90 1  
    96   91   92 2  
    97   91   93 am 
    98    1   94 1  
    99    1   95 1  
   100    3   96 1  
   101    7   97 1  
   102    7   98 1  
   103    7   99 1  
   104    8  100 1  
   105    8  101 1  
   106    9  102 1  
   107   10  103 1  
   108   11  104 1  
   109   12  105 1  
   110   13  106 1  
   111   14  107 1  
   112   17  108 1  
   113   17  109 1  
   114   18  110 1  
   115   19  111 1  
   116   19  112 1  
   117   19  113 1  
   118   20  114 1  
   119   20  115 1  
   120   20  116 1  
   121   21  117 1  
   122   21  118 1  
   123   22  119 1  
   124   23  120 1  
   125   26  121 1  
   126   26  122 1  
   127   27  123 1  
   128   27  124 1  
   129   28  125 1  
   130   28  126 1  
   131   29  127 1  
   132   29  128 1  
   133   30  129 1  
   134   30  130 1  
   135   30  131 1  
   136   31  132 1  
   137   32  133 1  
   138   35  134 1  
   139   35  135 1  
   140   38  136 1  
   141   39  137 1  
   142   40  138 1  
   143   41  139 1  
   144   42  140 1  
   145   45  141 1  
   146   45  142 1  
   147   48  143 1  
   148   49  144 1  
   149   50  145 1  
   150   51  146 1  
   151   52  147 1  
   152   55  148 1  
   153   55  149 1  
   154   55  150 1  
   155   56  151 1  
   156   57  152 1  
   157   60  153 1  
   158   60  154 1  
   159   62  155 1  
   160   63  156 1  
   161   64  157 1  
   162   65  158 1  
   163   66  159 1  
   164   67  160 1  
   165   68  161 1  
   166   71  162 1  
   167   71  163 1  
   168   72  164 1  
   169   73  165 1  
   170   74  166 1  
   171   77  167 1  
   172   77  168 1  
   173   79  169 1  
   174   80  170 1  
   175   81  171 1  
   176   82  172 1  
   177   83  173 1  
   178   84  174 1  
   179   85  175 1  
   180   86  176 1  
   181   86  177 1  
   182   87  178 1  
   183   87  179 1  
   184   88  180 1  
   185   88  181 1  
   186   89  182 1  
   187   89  183 1  
   188   90  184 1  
   189   90  185 1  
   190   90  186 1  
   191   93  187 1  
   192   93  188 1  
@<TRIPOS>SUBSTRUCTURE
     1 MOL         1

