### 
### Created by X-TOOL on Fri Sep 26 17:34:17 2014
### 

@<TRIPOS>MOLECULE
1d8e_ligand
   52    51     1     0     0
SMALL
GAST_HUCK


@<TRIPOS>ATOM
      1 C1         97.3330   26.4930   34.4390 C.3       1 MOL        -0.0406
      2 C2         97.4410   27.6550   33.4710 C.2       1 MOL        -0.0870
      3 C6         96.1210   28.3390   33.2210 C.3       1 MOL        -0.0406
      4 C10        98.5890   28.0670   32.8730 C.2       1 MOL        -0.1074
      5 C11        99.9630   27.4470   33.0590 C.3       1 MOL        -0.0388
      6 C12       100.6630   27.3240   31.7290 C.3       1 MOL        -0.0254
      7 C15       102.0730   26.8480   31.8310 C.2       1 MOL        -0.0827
      8 C18       102.6770   26.6030   30.4600 C.3       1 MOL        -0.0402
      9 C22       102.7710   26.6450   33.0120 C.2       1 MOL        -0.1070
     10 C23       104.2250   26.1510   33.0470 C.3       1 MOL        -0.0388
     11 C24       104.6730   25.6780   34.4170 C.3       1 MOL        -0.0253
     12 C27       106.1270   25.2750   34.4240 C.2       1 MOL        -0.0806
     13 C30       107.0850   26.3810   34.0350 C.3       1 MOL        -0.0402
     14 C34       106.5450   24.0360   34.7520 C.2       1 MOL        -0.0808
     15 C35       108.0070   23.6060   34.7680 C.3       1 MOL         0.0863
     16 O36       108.2250   22.6040   33.8100 O.3       1 MOL        -0.2515
     17 N42       108.0430   23.1400   32.5270 N.am      1 MOL        -0.1587
     18 C43       109.0640   23.1250   31.6690 C.2       1 MOL         0.2156
     19 O44       110.2430   22.9540   31.9760 O.2       1 MOL        -0.3954
     20 C45       108.6240   23.2610   30.2230 C.3       1 MOL         0.1101
     21 P46       109.8160   24.2570   29.3110 P.3       1 MOL         0.0776
     22 O49       109.2570   24.5810   28.0120 O.co2     1 MOL        -0.5606
     23 O50       111.0660   23.5080   29.1330 O.co2     1 MOL        -0.5606
     24 O51       110.0790   25.4800   30.0680 O.co2     1 MOL        -0.5606
     25 H1         96.2886   26.3847   34.7667 H         1 MOL         0.0375
     26 H2         97.9736   26.6829   35.3128 H         1 MOL         0.0375
     27 H3         97.6584   25.5684   33.9398 H         1 MOL         0.0375
     28 H4         96.2663   29.1690   32.5139 H         1 MOL         0.0375
     29 H5         95.7255   28.7307   34.1697 H         1 MOL         0.0375
     30 H6         95.4081   27.6165   32.7969 H         1 MOL         0.0375
     31 H7         98.5177   28.9193   32.1989 H         1 MOL         0.0244
     32 H8         99.8534   26.4478   33.5057 H         1 MOL         0.0361
     33 H9        100.5616   28.0837   33.7271 H         1 MOL         0.0361
     34 H10       100.6650   28.3121   31.2457 H         1 MOL         0.0425
     35 H11       100.1012   26.6123   31.1062 H         1 MOL         0.0425
     36 H12       103.7140   26.2540   30.5733 H         1 MOL         0.0375
     37 H13       102.6662   27.5388   29.8820 H         1 MOL         0.0375
     38 H14       102.0886   25.8386   29.9314 H         1 MOL         0.0375
     39 H15       102.2661   26.8446   33.9560 H         1 MOL         0.0244
     40 H16       104.8804   26.9766   32.7327 H         1 MOL         0.0361
     41 H17       104.3250   25.3140   32.3403 H         1 MOL         0.0361
     42 H18       104.0623   24.8119   34.7117 H         1 MOL         0.0425
     43 H19       104.5263   26.4934   35.1406 H         1 MOL         0.0425
     44 H20       108.1166   26.0006   34.0671 H         1 MOL         0.0375
     45 H21       106.9816   27.2201   34.7387 H         1 MOL         0.0375
     46 H22       106.8529   26.7258   33.0166 H         1 MOL         0.0375
     47 H23       105.7919   23.2972   35.0220 H         1 MOL         0.0265
     48 H24       108.2612   23.2175   35.7652 H         1 MOL         0.0665
     49 H25       108.6439   24.4731   34.5390 H         1 MOL         0.0665
     50 H26       107.1609   23.5277   32.2594 H         1 MOL         0.2221
     51 H27       107.6381   23.7473   30.1859 H         1 MOL         0.0691
     52 H28       108.5578   22.2625   29.7664 H         1 MOL         0.0691
@<TRIPOS>BOND
     1    1    2 1  
     2    2    3 1  
     3    2    4 2  
     4    4    5 1  
     5    5    6 1  
     6    6    7 1  
     7    7    8 1  
     8    7    9 2  
     9    9   10 1  
    10   10   11 1  
    11   11   12 1  
    12   12   13 1  
    13   12   14 2  
    14   14   15 1  
    15   15   16 1  
    16   16   17 1  
    17   17   18 am 
    18   18   19 2  
    19   18   20 1  
    20   20   21 1  
    21   21   22 ar 
    22   21   23 ar 
    23   21   24 ar 
    24    1   25 1  
    25    1   26 1  
    26    1   27 1  
    27    3   28 1  
    28    3   29 1  
    29    3   30 1  
    30    4   31 1  
    31    5   32 1  
    32    5   33 1  
    33    6   34 1  
    34    6   35 1  
    35    8   36 1  
    36    8   37 1  
    37    8   38 1  
    38    9   39 1  
    39   10   40 1  
    40   10   41 1  
    41   11   42 1  
    42   11   43 1  
    43   13   44 1  
    44   13   45 1  
    45   13   46 1  
    46   14   47 1  
    47   15   48 1  
    48   15   49 1  
    49   17   50 1  
    50   20   51 1  
    51   20   52 1  
@<TRIPOS>SUBSTRUCTURE
     1 MOL         1

