### 
### Created by X-TOOL on Fri Sep 26 17:34:16 2014
### 

@<TRIPOS>MOLECULE
1qjb_ligand
  124   126     1     0     0
SMALL
GAST_HUCK


@<TRIPOS>ATOM
      1 O4         20.1418   -4.0512   44.3787 O.co2     1 MOL        -0.5666
      2 H1         34.5894  -11.3001   45.2006 H         1 MOL         0.2015
      3 H2         33.6474  -12.6454   45.0908 H         1 MOL         0.2015
      4 H3         33.6245  -11.7343   46.4615 H         1 MOL         0.2015
      5 H4         32.6697   -9.8825   45.3405 H         1 MOL         0.1095
      6 H5         31.8039  -10.0994   43.0487 H         1 MOL         0.0310
      7 H6         32.6003  -11.7027   42.9016 H         1 MOL         0.0310
      8 H7         33.5951  -10.2211   43.1064 H         1 MOL         0.0310
      9 H8         30.4126   -9.6244   45.0422 H         1 MOL         0.1884
     10 H9         28.9037  -11.7855   46.3293 H         1 MOL         0.0800
     11 H10        28.6460   -9.3133   46.8292 H         1 MOL         0.0313
     12 H11        27.1413  -10.2540   46.5508 H         1 MOL         0.0313
     13 H12        27.1745   -9.3292   44.1690 H         1 MOL         0.0301
     14 H13        28.4513   -8.2002   44.7363 H         1 MOL         0.0301
     15 H14        26.9449   -7.4218   46.5313 H         1 MOL         0.0689
     16 H15        25.6659   -8.5266   45.9227 H         1 MOL         0.0689
     17 H16        26.2371   -6.9187   43.7479 H         1 MOL         0.2642
     18 H17        24.4916   -4.8289   46.7851 H         1 MOL         0.2615
     19 H18        25.3420   -6.3517   47.1597 H         1 MOL         0.2615
     20 H19        25.1265   -4.9536   43.3314 H         1 MOL         0.2615
     21 H20        24.3685   -4.0626   44.6784 H         1 MOL         0.2615
     22 H21        27.3881  -13.0576   45.3963 H         1 MOL         0.1884
     23 H22        27.3741  -13.5349   42.5650 H         1 MOL         0.0823
     24 H23        25.1666  -14.7391   43.1223 H         1 MOL         0.0606
     25 H24        25.3561  -14.1529   44.8096 H         1 MOL         0.0606
     26 H25        26.2533  -16.2655   44.4867 H         1 MOL         0.2097
     27 H26        25.7673  -12.7612   40.9974 H         1 MOL         0.1885
     28 H27        24.3736  -10.3126   41.8907 H         1 MOL         0.0824
     29 H28        23.8645   -9.9615   39.5276 H         1 MOL         0.0491
     30 H29        24.4202  -11.6228   39.1301 H         1 MOL         0.0491
     31 H30        25.6390   -8.1904   40.1357 H         1 MOL         0.2386
     32 H31        27.2425  -11.9748   39.1625 H         1 MOL         0.0324
     33 H32        28.1576   -7.8619   39.8517 H         1 MOL         0.1149
     34 H33        22.2261   -9.9691   42.1833 H         1 MOL         0.1884
     35 H34        20.4533  -12.0766   41.1004 H         1 MOL         0.0827
     36 H35        20.7417  -12.5320   43.5974 H         1 MOL         0.0662
     37 H36        19.0503  -12.0944   43.1797 H         1 MOL         0.0662
     38 H37        18.0292  -11.2359   41.3677 H         1 MOL         0.1885
     39 H38        17.9826   -8.4353   40.4550 H         1 MOL         0.0821
     40 H39        16.8754  -10.7320   38.7850 H         1 MOL         0.0453
     41 H40        18.3681   -9.7962   38.4348 H         1 MOL         0.0453
     42 H41        14.6452   -9.6215   38.5341 H         1 MOL         0.0530
     43 H42        18.2274   -7.5869   37.4881 H         1 MOL         0.0530
     44 H43        13.3238   -7.8460   37.4431 H         1 MOL         0.0525
     45 H44        16.9458   -5.8842   36.2732 H         1 MOL         0.0525
     46 H45        13.3909   -6.0190   36.2177 H         1 MOL         0.2458
     47 H46        16.4390   -6.6746   40.1261 H         1 MOL         0.0802
     48 H47        14.3727   -5.6342   40.8026 H         1 MOL         0.0313
     49 H48        15.5256   -4.8609   41.9426 H         1 MOL         0.0313
     50 H49        13.4905   -6.2353   43.0261 H         1 MOL         0.0287
     51 H50        15.1359   -6.6010   43.6471 H         1 MOL         0.0287
     52 H51        13.5978   -8.0221   41.3814 H         1 MOL         0.0524
     53 H52        14.3184   -8.7626   42.8507 H         1 MOL         0.0524
     54 H53        18.1235   -5.1344   40.8435 H         1 MOL         0.1875
     55 H54        19.7259   -6.2753   43.0525 H         1 MOL         0.0723
     56 H55        21.5755   -4.9283   42.0936 H         1 MOL         0.0270
     57 H56        20.4424   -4.2757   40.8620 H         1 MOL         0.0270
     58 H57        20.8302   -6.0295   40.8859 H         1 MOL         0.0270
     59 N          33.7040  -11.7080   45.4570 N.4       1 MOL         0.2377
     60 CA         32.5920  -10.8830   44.8900 C.3       1 MOL         0.0621
     61 C          31.2250  -11.4680   45.2560 C.2       1 MOL         0.2264
     62 O          31.0810  -12.6570   45.5540 O.2       1 MOL        -0.3907
     63 CB         32.6520  -10.7150   43.3830 C.3       1 MOL        -0.0040
     64 N          30.2260  -10.5840   45.2530 N.am      1 MOL        -0.2610
     65 CA         28.8680  -11.0060   45.5540 C.3       1 MOL         0.1312
     66 C          28.2210  -11.5880   44.2960 C.2       1 MOL         0.2040
     67 O          28.4290  -11.1260   43.1800 O.2       1 MOL        -0.3944
     68 CB         28.0420   -9.8390   46.0750 C.3       1 MOL        -0.0092
     69 CG         27.5880   -8.8080   45.0450 C.3       1 MOL        -0.0156
     70 CD         26.5230   -7.9000   45.6350 C.3       1 MOL         0.0627
     71 NE         26.0330   -6.8480   44.7550 N.pl3     1 MOL        -0.2723
     72 CZ         25.3330   -5.7970   45.1870 C.cat     1 MOL         0.2882
     73 NH1        25.0330   -5.6480   46.4740 N.pl3     1 MOL        -0.2849
     74 NH2        24.9110   -4.8680   44.3350 N.pl3     1 MOL        -0.2849
     75 N          27.4530  -12.6510   44.4850 N.am      1 MOL        -0.2616
     76 CA         26.7030  -13.2340   43.3830 C.3       1 MOL         0.1539
     77 C          25.7100  -12.1640   42.9250 C.2       1 MOL         0.2063
     78 O          25.1860  -11.4400   43.7940 O.2       1 MOL        -0.3943
     79 CB         25.8920  -14.4370   43.8920 C.3       1 MOL         0.0843
     80 OG         26.7620  -15.5270   44.1730 O.3       1 MOL        -0.3903
     81 N          25.3430  -12.1450   41.6610 N.am      1 MOL        -0.2618
     82 CA         24.2960  -11.1990   41.2440 C.3       1 MOL         0.1421
     83 C          22.8830  -11.7370   41.3870 C.2       1 MOL         0.2061
     84 O          22.5980  -12.8820   41.0110 O.2       1 MOL        -0.3942
     85 CB         24.5650  -10.7640   39.8020 C.3       1 MOL         0.0427
     86 CG         25.9730  -10.2610   39.6680 C.2       1 MOL         0.0561
     87 ND1        26.3020   -8.9400   39.8920 N.pl3     1 MOL        -0.2623
     88 CD2        27.1290  -10.9150   39.3860 C.2       1 MOL        -0.0276
     89 CE1        27.6050   -8.7940   39.7430 C.2       1 MOL         0.0875
     90 NE2        28.1270   -9.9720   39.4390 N.2       1 MOL        -0.3437
     91 N          21.9530  -10.8670   41.8380 N.am      1 MOL        -0.2611
     92 CA         20.5600  -11.2480   41.8160 C.3       1 MOL         0.1586
     93 CB         20.0940  -11.7470   43.1800 C.3       1 MOL         0.1184
     94 OG         20.2670  -10.4570   43.8310 O.3       1 MOL        -0.2714
     95 C          19.6700  -10.0950   41.3350 C.2       1 MOL         0.2066
     96 O          20.2000   -9.0240   41.0910 O.2       1 MOL        -0.3943
     97 P          20.0720  -10.3110   45.7390 P.3       1 MOL         0.2010
     98 O1         20.9430  -11.3450   46.4650 O.co2     1 MOL        -0.5537
     99 O2         18.6300  -10.8190   45.9620 O.co2     1 MOL        -0.5537
    100 O3         20.1870   -8.9560   46.3700 O.co2     1 MOL        -0.5537
    101 N          18.4010  -10.3550   41.0750 N.am      1 MOL        -0.2620
    102 CA         17.5140   -9.4280   40.3850 C.3       1 MOL         0.1392
    103 C          16.1630   -9.3230   41.0350 C.2       1 MOL         0.2082
    104 O          15.7070  -10.4290   41.2390 O.2       1 MOL        -0.3940
    105 CB         17.3650   -9.7520   38.8840 C.3       1 MOL         0.0164
    106 CG         16.5400   -8.7200   38.1250 C.ar      1 MOL        -0.0493
    107 CD1        15.1550   -8.7860   38.0680 C.ar      1 MOL        -0.0685
    108 CD2        17.1460   -7.6590   37.4660 C.ar      1 MOL        -0.0685
    109 CE1        14.4070   -7.8070   37.4280 C.ar      1 MOL        -0.0398
    110 CE2        16.4370   -6.6930   36.7850 C.ar      1 MOL        -0.0398
    111 CZ         15.0590   -6.7860   36.7740 C.ar      1 MOL         0.0805
    112 OH         14.3150   -5.8140   36.1370 O.3       1 MOL        -0.3376
    113 N          15.7090   -8.1430   41.3830 N.am      1 MOL        -0.2497
    114 CA         16.1880   -6.8210   41.1870 C.3       1 MOL         0.1337
    115 C          17.4290   -6.5830   42.0460 C.2       1 MOL         0.2035
    116 O          17.5210   -7.1580   43.1360 O.2       1 MOL        -0.3944
    117 CB         15.0990   -5.8180   41.6080 C.3       1 MOL        -0.0104
    118 CG         14.4910   -6.6040   42.7560 C.3       1 MOL        -0.0281
    119 CD         14.4370   -7.9760   42.0910 C.3       1 MOL         0.0369
    120 N          18.2970   -5.6590   41.6770 N.am      1 MOL        -0.2697
    121 CA         19.5020   -5.3820   42.4510 C.3       1 MOL         0.0916
    122 C          19.3430   -4.2020   43.4160 C.2       1 MOL         0.0598
    123 O          18.4050   -3.3880   43.2330 O.co2     1 MOL        -0.5666
    124 CB         20.6680   -5.1370   41.5080 C.3       1 MOL        -0.0300
@<TRIPOS>BOND
     1   91   83 am 
     2   95   96 2  
     3  101   95 am 
     4   95   92 1  
     5   92   93 1  
     6   92   91 1  
     7   93   94 1  
     8   94   97 1  
     9   97   98 ar 
    10   97  100 ar 
    11   97   99 ar 
    12  122    1 ar 
    13   59    2 1  
    14   59    3 1  
    15   59    4 1  
    16   60    5 1  
    17   63    6 1  
    18   63    7 1  
    19   63    8 1  
    20   64    9 1  
    21   65   10 1  
    22   68   11 1  
    23   68   12 1  
    24   69   13 1  
    25   69   14 1  
    26   70   15 1  
    27   70   16 1  
    28   71   17 1  
    29   73   18 1  
    30   73   19 1  
    31   74   20 1  
    32   74   21 1  
    33   75   22 1  
    34   76   23 1  
    35   79   24 1  
    36   79   25 1  
    37   80   26 1  
    38   81   27 1  
    39   82   28 1  
    40   85   29 1  
    41   85   30 1  
    42   87   31 1  
    43   88   32 1  
    44   89   33 1  
    45   91   34 1  
    46   92   35 1  
    47   93   36 1  
    48   93   37 1  
    49   61   60 1  
    50   60   63 1  
    51   60   59 1  
    52   61   62 2  
    53   66   65 1  
    54   65   68 1  
    55   65   64 1  
    56   68   69 1  
    57   69   70 1  
    58   70   71 1  
    59   71   72 ar 
    60   72   73 ar 
    61   72   74 ar 
    62   66   67 2  
    63   77   76 1  
    64   76   79 1  
    65   76   75 1  
    66   79   80 1  
    67   77   78 2  
    68   83   82 1  
    69   82   85 1  
    70   82   81 1  
    71   85   86 1  
    72   86   88 2  
    73   86   87 1  
    74   87   89 1  
    75   89   90 2  
    76   88   90 1  
    77   83   84 2  
    78  103  102 1  
    79  102  105 1  
    80  102  101 1  
    81  105  106 1  
    82  106  108 ar 
    83  106  107 ar 
    84  107  109 ar 
    85  109  111 ar 
    86  111  112 1  
    87  110  111 ar 
    88  108  110 ar 
    89  103  104 2  
    90  114  113 1  
    91  114  117 1  
    92  115  114 1  
    93  115  116 2  
    94  117  118 1  
    95  118  119 1  
    96  113  119 1  
    97  121  122 1  
    98  121  124 1  
    99  120  121 1  
   100  122  123 ar 
   101  101   38 1  
   102  102   39 1  
   103  105   40 1  
   104  105   41 1  
   105   64   61 am 
   106   75   66 am 
   107   81   77 am 
   108  113  103 am 
   109  115  120 am 
   110  107   42 1  
   111  108   43 1  
   112  109   44 1  
   113  110   45 1  
   114  112   46 1  
   115  114   47 1  
   116  117   48 1  
   117  117   49 1  
   118  118   50 1  
   119  118   51 1  
   120  119   52 1  
   121  119   53 1  
   122  120   54 1  
   123  121   55 1  
   124  124   56 1  
   125  124   57 1  
   126  124   58 1  
@<TRIPOS>SUBSTRUCTURE
     1 MOL         1

