### 
### Created by X-TOOL on Fri Sep 26 17:34:31 2014
### 

@<TRIPOS>MOLECULE
1yrs_ligand
   40    42     1     0     0
SMALL
GAST_HUCK


@<TRIPOS>ATOM
      1 PB         14.8680    6.4510   99.3540 P.3       1 L47         0.2946
      2 O1B        14.3620    7.0950   98.1230 O.co2     1 L47        -0.6129
      3 O2B        15.3590    4.9580   99.0460 O.co2     1 L47        -0.6129
      4 O3B        15.9820    7.2060   99.9660 O.3       1 L47        -0.2660
      5 PA         13.3350    7.1080  101.6590 P.3       1 L47         0.2972
      6 O1A        14.2910    6.8210  102.7360 O.co2     1 L47        -0.6127
      7 O2A        13.3340    8.5380  101.3590 O.co2     1 L47        -0.6127
      8 O3A        13.7140    6.2950  100.3770 O.3       1 L47        -0.1321
      9 O5'        11.8730    6.7540  102.0890 O.3       1 L47        -0.2476
     10 C5'        10.9140    5.8840  101.4970 C.3       1 L47         0.1128
     11 C4'         9.6670    5.9510  102.4530 C.3       1 L47         0.1189
     12 O4'         9.7060    4.7020  103.1410 O.3       1 L47        -0.3364
     13 C3'         9.7250    7.0310  103.5750 C.3       1 L47         0.1149
     14 O3'         8.4580    7.6830  103.7700 O.3       1 L47        -0.3864
     15 C2'        10.1910    6.3160  104.8380 C.3       1 L47         0.1385
     16 O2'         9.6600    6.8810  106.0450 O.3       1 L47        -0.3836
     17 C1'         9.8020    4.8680  104.5750 C.3       1 L47         0.2010
     18 N9         10.8120    3.8510  105.0840 N.pl3     1 L47        -0.1919
     19 C8         11.8760    3.3710  104.3760 C.2       1 L47         0.1123
     20 N7         12.5470    2.4970  105.1070 N.2       1 L47        -0.2958
     21 C5         11.9590    2.3900  106.2690 C.ar      1 L47         0.1045
     22 C6         12.1810    1.6470  107.4380 C.ar      1 L47         0.1298
     23 N6         13.2130    0.8080  107.5050 N.pl3     1 L47        -0.3152
     24 N1         11.3310    1.7800  108.5270 N.ar      1 L47        -0.2698
     25 C2         10.2560    2.6260  108.5130 C.ar      1 L47         0.0533
     26 N3         10.0230    3.3540  107.3830 N.ar      1 L47        -0.2714
     27 C4         10.8300    3.2690  106.2660 C.ar      1 L47         0.1613
     28 H1         16.6855    7.2980   99.3342 H         1 L47         0.2633
     29 H2         10.6475    6.2305  100.4876 H         1 L47         0.0648
     30 H3         11.3047    4.8573  101.4410 H         1 L47         0.0648
     31 H4          8.7464    6.0753  101.8639 H         1 L47         0.0651
     32 H5         10.4642    7.7974  103.2991 H         1 L47         0.0648
     33 H6          8.5393    8.3307  104.4601 H         1 L47         0.2100
     34 H7         11.2866    6.3832  104.9092 H         1 L47         0.0676
     35 H8          8.7114    6.8341  106.0247 H         1 L47         0.2101
     36 H9          8.8286    4.6694  105.0472 H         1 L47         0.0996
     37 H10        12.1340    3.6645  103.3595 H         1 L47         0.1349
     38 H11        13.8467    0.7057  106.6995 H         1 L47         0.1820
     39 H12        13.3775    0.2613  108.3623 H         1 L47         0.1820
     40 H13         9.6068    2.7155  109.3765 H         1 L47         0.0996
@<TRIPOS>BOND
     1   17   15 1  
     2   17   12 1  
     3   15   13 1  
     4   11   13 1  
     5   13   14 1  
     6   11   10 1  
     7   12   11 1  
     8   10    9 1  
     9    9    5 1  
    10    5    6 ar 
    11    5    7 ar 
    12   18   17 1  
    13    5    8 1  
    14   25   24 ar 
    15   24   22 ar 
    16   26   25 ar 
    17   27   26 ar 
    18   27   21 ar 
    19   18   27 1  
    20   21   22 ar 
    21   21   20 1  
    22   20   19 2  
    23   18   19 1  
    24   22   23 1  
    25   15   16 1  
    26    8    1 1  
    27    1    4 1  
    28    1    2 ar 
    29    1    3 ar 
    30    4   28 1  
    31   10   29 1  
    32   10   30 1  
    33   11   31 1  
    34   13   32 1  
    35   14   33 1  
    36   15   34 1  
    37   16   35 1  
    38   17   36 1  
    39   19   37 1  
    40   23   38 1  
    41   23   39 1  
    42   25   40 1  
@<TRIPOS>SUBSTRUCTURE
     1 L47         1

