### 
### Created by X-TOOL on Fri Sep 26 17:34:31 2014
### 

@<TRIPOS>MOLECULE
1zls_ligand
   87    90     1     0     0
SMALL
GAST_HUCK


@<TRIPOS>ATOM
      1 H          -4.1328  -10.7897   16.9052 H         1 MAN229      0.0938
      2 H          -4.5333  -13.2597   16.6929 H         1 MAN229      0.0671
      3 H          -3.8158  -13.5530   14.3596 H         1 MAN229      0.0648
      4 H          -6.2527  -11.9566   13.5188 H         1 MAN229      0.0647
      5 H          -3.2891  -11.2739   13.3809 H         1 MAN229      0.0647
      6 H          -4.7737  -10.3755   11.5912 H         1 MAN229      0.0584
      7 H          -3.9162   -9.1374   12.5702 H         1 MAN229      0.0584
      8 H          -6.7524  -12.9026   16.1634 H         1 MAN229      0.2101
      9 H          -6.5831  -14.0575   14.6901 H         1 MAN229      0.2100
     10 H          -5.4615  -13.5955   12.0424 H         1 MAN229      0.2100
     11 H          -5.8956   -8.8557   13.7235 H         1 MAN229      0.2095
     12 H          -1.8536  -10.0002   14.1483 H         1 MAN229      0.0938
     13 H          -2.3013   -9.8655   16.5899 H         1 MAN229      0.0675
     14 H           0.0596  -10.3979   17.2431 H         1 MAN229      0.0648
     15 H          -0.7828  -13.1958   16.3857 H         1 MAN229      0.0647
     16 H           1.3327  -11.3805   15.1856 H         1 MAN229      0.0647
     17 H           0.4345  -14.1872   14.4929 H         1 MAN229      0.0584
     18 H           2.0924  -13.5375   14.7293 H         1 MAN229      0.0584
     19 H          -0.4706  -11.8091   18.9641 H         1 MAN229      0.2100
     20 H           0.6918  -13.0128   18.1437 H         1 MAN229      0.2100
     21 H           0.3544  -12.9327   12.5346 H         1 MAN229      0.2095
     22 H           2.2941   -9.4867   13.7533 H         1 MAN229      0.0938
     23 H          -0.0898   -9.3054   12.9538 H         1 MAN229      0.0675
     24 H          -0.1607   -6.8656   12.6376 H         1 MAN229      0.0648
     25 H          -0.2004   -6.6932   15.6934 H         1 MAN229      0.0647
     26 H           2.0850   -5.8883   13.7861 H         1 MAN229      0.0647
     27 H           1.9936   -6.0507   16.8466 H         1 MAN229      0.0584
     28 H           1.6901   -4.5396   15.9240 H         1 MAN229      0.0584
     29 H          -2.0451   -7.7311   14.5978 H         1 MAN229      0.2100
     30 H          -1.2819   -5.0533   14.4921 H         1 MAN229      0.2100
     31 H           3.9033   -4.7842   16.5442 H         1 MAN229      0.2095
     32 H           4.6734   -9.2320    9.3504 H         1 MAN229      0.0935
     33 H           2.8798   -9.8300   10.4456 H         1 MAN229      0.0671
     34 H           2.5496   -7.8890   10.6350 H         1 MAN229      0.0651
     35 H           4.0698   -6.4276   12.5511 H         1 MAN229      0.0647
     36 H           5.8677   -6.4355   10.4345 H         1 MAN229      0.0647
     37 H           5.5847   -7.2437   13.3194 H         1 MAN229      0.0584
     38 H           6.6128   -5.9651   12.5880 H         1 MAN229      0.0584
     39 H           5.9742  -10.8484   11.2810 H         1 MAN229      0.2126
     40 H           3.9395  -11.3083   11.7729 H         1 MAN229      0.2101
     41 H           2.5522   -5.9636   10.8512 H         1 MAN229      0.2100
     42 H           7.1447   -8.7540   12.5724 H         1 MAN229      0.2095
     43 C1         -3.9820  -11.3140   15.9500 C.3       1 MAN229      0.1885
     44 C2         -4.8690  -12.5440   15.9280 C.3       1 MAN229      0.1341
     45 C3         -4.8420  -13.2040   14.5470 C.3       1 MAN229      0.1141
     46 C4         -5.1890  -12.2270   13.4450 C.3       1 MAN229      0.1119
     47 C5         -4.3240  -10.9700   13.5970 C.3       1 MAN229      0.1130
     48 C6         -4.7040   -9.9050   12.5830 C.3       1 MAN229      0.0730
     49 O2         -6.1820  -12.1430   16.1790 O.3       1 MAN229     -0.3841
     50 O3         -5.6840  -14.3350   14.5600 O.3       1 MAN229     -0.3864
     51 O4         -4.9300  -12.8150   12.1470 O.3       1 MAN229     -0.3865
     52 O5         -4.3260  -10.4070   14.9360 O.3       1 MAN229     -0.3405
     53 O6         -5.9450   -9.2740   12.8720 O.3       1 MAN229     -0.3924
     54 C1         -1.0670  -10.3400   14.8380 C.3       1 MAN229      0.1889
     55 C2         -1.7590  -10.7260   16.1710 C.3       1 MAN229      0.1406
     56 C3         -0.6870  -11.1970   17.1250 C.3       1 MAN229      0.1144
     57 C4         -0.0340  -12.3940   16.4660 C.3       1 MAN229      0.1119
     58 C5          0.5080  -12.0970   15.0570 C.3       1 MAN229      0.1130
     59 C6          1.0940  -13.3240   14.3200 C.3       1 MAN229      0.0730
     60 O2         -2.6450  -11.7970   15.9280 O.3       1 MAN229     -0.3378
     61 O3         -1.1860  -11.5160   18.4120 O.3       1 MAN229     -0.3864
     62 O4          1.0180  -12.8270   17.2710 O.3       1 MAN229     -0.3865
     63 O5         -0.4680  -11.4760   14.2480 O.3       1 MAN229     -0.3405
     64 O6          1.2130  -13.1110   12.9000 O.3       1 MAN229     -0.3924
     65 C1          1.7850   -8.5120   13.7270 C.3       1 MAN229      0.1888
     66 C2          0.2420   -8.6530   13.7750 C.3       1 MAN229      0.1406
     67 C3         -0.4070   -7.2760   13.6280 C.3       1 MAN229      0.1144
     68 C4          0.1510   -6.3420   14.7120 C.3       1 MAN229      0.1119
     69 C5          1.7130   -6.3390   14.7180 C.3       1 MAN229      0.1130
     70 C6          2.2080   -5.5100   15.9130 C.3       1 MAN229      0.0730
     71 O2         -0.1510   -9.2150   15.0130 O.3       1 MAN229     -0.3377
     72 O3         -1.8230   -7.3810   13.7430 O.3       1 MAN229     -0.3864
     73 O4         -0.3320   -5.0410   14.4940 O.3       1 MAN229     -0.3865
     74 O5          2.1780   -7.6910   14.8070 O.3       1 MAN229     -0.3405
     75 O6          3.6030   -5.2970   15.8030 O.3       1 MAN229     -0.3924
     76 C1          4.9580   -9.4420   10.3920 C.3       1 MAN229      0.1854
     77 C2          3.6180   -9.4880   11.1860 C.3       1 MAN229      0.1343
     78 C3          3.0980   -8.0860   11.5680 C.3       1 MAN229      0.1206
     79 C4          4.0750   -6.9130   11.5640 C.3       1 MAN229      0.1123
     80 C5          5.5470   -7.1720   11.1860 C.3       1 MAN229      0.1130
     81 C6          6.2830   -7.0110   12.5020 C.3       1 MAN229      0.0730
     82 O1          5.6340  -10.6860   10.4090 O.3       1 MAN229     -0.3649
     83 O2          3.5910  -10.5090   12.1500 O.3       1 MAN229     -0.3841
     84 O3          2.0430   -7.7970   12.5110 O.3       1 MAN229     -0.3400
     85 O4          3.4570   -6.1130   10.6030 O.3       1 MAN229     -0.3865
     86 O5          5.8990   -8.4690   10.7500 O.3       1 MAN229     -0.3407
     87 O6          7.4140   -7.8450   12.6340 O.3       1 MAN229     -0.3924
@<TRIPOS>BOND
     1   43    1 1  
     2   44    2 1  
     3   45    3 1  
     4   46    4 1  
     5   47    5 1  
     6   48    6 1  
     7   48    7 1  
     8   49    8 1  
     9   50    9 1  
    10   51   10 1  
    11   53   11 1  
    12   54   12 1  
    13   55   13 1  
    14   56   14 1  
    15   57   15 1  
    16   58   16 1  
    17   59   17 1  
    18   59   18 1  
    19   61   19 1  
    20   62   20 1  
    21   64   21 1  
    22   65   22 1  
    23   66   23 1  
    24   67   24 1  
    25   68   25 1  
    26   69   26 1  
    27   70   27 1  
    28   70   28 1  
    29   72   29 1  
    30   73   30 1  
    31   75   31 1  
    32   76   32 1  
    33   77   33 1  
    34   78   34 1  
    35   79   35 1  
    36   80   36 1  
    37   81   37 1  
    38   81   38 1  
    39   82   39 1  
    40   83   40 1  
    41   85   41 1  
    42   87   42 1  
    43   43   44 1  
    44   43   52 1  
    45   44   45 1  
    46   44   49 1  
    47   45   46 1  
    48   45   50 1  
    49   47   46 1  
    50   46   51 1  
    51   47   48 1  
    52   52   47 1  
    53   48   53 1  
    54   55   54 1  
    55   54   63 1  
    56   55   56 1  
    57   60   55 1  
    58   56   57 1  
    59   56   61 1  
    60   57   58 1  
    61   57   62 1  
    62   58   59 1  
    63   63   58 1  
    64   59   64 1  
    65   66   65 1  
    66   65   74 1  
    67   66   67 1  
    68   71   66 1  
    69   67   68 1  
    70   67   72 1  
    71   68   69 1  
    72   68   73 1  
    73   69   70 1  
    74   74   69 1  
    75   70   75 1  
    76   77   76 1  
    77   76   82 1  
    78   76   86 1  
    79   78   77 1  
    80   77   83 1  
    81   78   79 1  
    82   84   78 1  
    83   79   80 1  
    84   79   85 1  
    85   80   81 1  
    86   80   86 1  
    87   81   87 1  
    88   65   84 1  
    89   54   71 1  
    90   60   43 1  
@<TRIPOS>SUBSTRUCTURE
     1 MAN229      1

