### 
### Created by X-TOOL on Fri Sep 26 17:34:30 2014
### 

@<TRIPOS>MOLECULE
1zlw_ligand
  147   154     1     0     0
SMALL
GAST_HUCK


@<TRIPOS>ATOM
      1 H          -7.3865  -46.0465   -9.8352 H         1 MAN229      0.0586
      2 H          -6.8857  -46.6906   -8.2349 H         1 MAN229      0.0586
      3 H          -6.9349  -44.2576   -8.0099 H         1 MAN229      0.0643
      4 H          -6.9707  -43.8643  -10.4626 H         1 MAN229      0.0650
      5 H          -3.9294  -44.0757  -10.3044 H         1 MAN229      0.0647
      6 H          -5.6440  -46.1213  -11.6312 H         1 MAN229      0.0646
      7 H          -3.6505  -46.7266  -12.3342 H         1 MAN229      0.0587
      8 H          -3.3281  -47.3203  -10.6697 H         1 MAN229      0.0587
      9 H          -4.1981  -44.8947   -8.4919 H         1 MAN229      0.2100
     10 H          -4.4057  -43.9916  -12.5673 H         1 MAN229      0.2100
     11 H          -7.5689  -41.9755  -10.5685 H         1 MAN229      0.0938
     12 H          -6.1211  -39.9362  -10.6751 H         1 MAN229      0.0675
     13 H          -5.0952  -40.2653   -8.3595 H         1 MAN229      0.0648
     14 H          -7.9122  -39.3991   -7.5846 H         1 MAN229      0.0647
     15 H          -6.1933  -41.8909   -7.1194 H         1 MAN229      0.0647
     16 H          -9.0402  -41.1118   -6.2934 H         1 MAN229      0.0584
     17 H          -7.6350  -41.3745   -5.2057 H         1 MAN229      0.0584
     18 H          -6.3509  -37.7921   -8.9811 H         1 MAN229      0.2100
     19 H          -6.3595  -38.6325   -6.0767 H         1 MAN229      0.2100
     20 H          -8.7730  -43.3075   -6.9670 H         1 MAN229      0.2095
     21 H          -7.1797  -37.7229  -10.3833 H         1 MAN229      0.0938
     22 H          -9.4951  -37.1638   -9.7090 H         1 MAN229      0.0675
     23 H         -10.4272  -39.4150  -10.3219 H         1 MAN229      0.0648
     24 H         -10.0571  -38.4627  -13.2292 H         1 MAN229      0.0647
     25 H          -8.6663  -40.5544  -11.4836 H         1 MAN229      0.0647
     26 H          -8.0163  -41.6696  -13.3235 H         1 MAN229      0.0584
     27 H          -7.0101  -40.2319  -13.7072 H         1 MAN229      0.0584
     28 H         -11.5627  -37.2189  -11.7247 H         1 MAN229      0.2100
     29 H         -10.7054  -40.6979  -13.4162 H         1 MAN229      0.2100
     30 H          -9.7064  -40.6461  -14.4918 H         1 MAN229      0.2095
     31 H          -9.4996  -35.0807  -10.3985 H         1 MAN229      0.0938
     32 H         -10.3600  -34.5045  -12.6720 H         1 MAN229      0.0671
     33 H          -8.6337  -35.6989  -14.0242 H         1 MAN229      0.0648
     34 H          -6.7848  -33.4872  -13.0110 H         1 MAN229      0.0647
     35 H          -6.7539  -36.4746  -12.3500 H         1 MAN229      0.0647
     36 H          -4.6968  -34.6688  -12.4589 H         1 MAN229      0.0584
     37 H          -4.7760  -35.9856  -11.2396 H         1 MAN229      0.0584
     38 H          -8.0649  -33.0342  -11.7869 H         1 MAN229      0.2101
     39 H          -8.6498  -32.8582  -14.3080 H         1 MAN229      0.2100
     40 H          -6.2418  -34.3602  -15.0787 H         1 MAN229      0.2100
     41 H          -5.9398  -34.5136   -9.9054 H         1 MAN229      0.2095
     42 H          -1.1170  -46.9842  -11.6379 H         1 MAN229      0.0937
     43 H          -2.1388  -46.6092  -13.7439 H         1 MAN229      0.0671
     44 H           0.3573  -45.8098  -14.1369 H         1 MAN229      0.0651
     45 H          -1.5387  -43.9363  -12.7873 H         1 MAN229      0.0647
     46 H           1.1974  -45.1820  -12.8725 H         1 MAN229      0.0652
     47 H           2.0908  -43.1461  -12.5400 H         1 MAN229      0.0679
     48 H          -3.2329  -44.8694  -12.5529 H         1 MAN229      0.2101
     49 H          -0.3937  -42.0674  -13.3592 H         1 MAN229      0.2100
     50 H          -1.0882  -46.7887  -16.1581 H         1 MAN229      0.0938
     51 H           1.3274  -46.8646  -15.8928 H         1 MAN229      0.0671
     52 H           1.8087  -44.4877  -16.6412 H         1 MAN229      0.0648
     53 H           1.2388  -45.6807  -19.4073 H         1 MAN229      0.0647
     54 H          -0.4336  -43.6018  -17.9645 H         1 MAN229      0.0647
     55 H          -1.4879  -45.2376  -20.2286 H         1 MAN229      0.0584
     56 H          -0.1462  -44.1057  -20.6101 H         1 MAN229      0.0584
     57 H           1.9067  -47.6098  -18.0305 H         1 MAN229      0.2101
     58 H           3.1886  -46.4900  -18.1528 H         1 MAN229      0.2100
     59 H           2.6632  -43.8849  -19.1121 H         1 MAN229      0.2100
     60 H          -2.2267  -43.1225  -20.7802 H         1 MAN229      0.2095
     61 H           1.8729  -40.4371  -11.9244 H         1 MAN229      0.0675
     62 H           3.0642  -41.8219  -10.2750 H         1 MAN229      0.0648
     63 H           1.6408  -40.5046   -7.9406 H         1 MAN229      0.0647
     64 H           0.9821  -43.2814   -9.0313 H         1 MAN229      0.0647
     65 H          -0.9760  -43.2768   -7.6311 H         1 MAN229      0.0584
     66 H          -0.6475  -41.5958   -7.0896 H         1 MAN229      0.0584
     67 H           0.3899  -39.6173   -9.6354 H         1 MAN229      0.2101
     68 H           3.0887  -39.1599   -9.3837 H         1 MAN229      0.2100
     69 H           2.5985  -42.4006   -7.0362 H         1 MAN229      0.2100
     70 H           1.3503  -42.3750   -6.2879 H         1 MAN229      0.2095
     71 C1         -6.5670  -46.0950   -9.1030 C.3       1 MAN229      0.0767
     72 C2         -6.1420  -44.6590   -8.6580 C.3       1 MAN229      0.1071
     73 C3         -6.0220  -43.7890   -9.9110 C.3       1 MAN229      0.1180
     74 C4         -4.9000  -44.3660  -10.7330 C.3       1 MAN229      0.1121
     75 C5         -4.9340  -45.8990  -10.8210 C.3       1 MAN229      0.1104
     76 C6         -3.5740  -46.4360  -11.2760 C.3       1 MAN229      0.0795
     77 O2         -4.9040  -44.5790   -7.9400 O.3       1 MAN229     -0.3869
     78 O3         -5.7270  -42.3970   -9.7380 O.3       1 MAN229     -0.3401
     79 O4         -5.0910  -43.7270  -11.9650 O.3       1 MAN229     -0.3865
     80 O5         -5.4260  -46.6440   -9.6810 O.3       1 MAN229     -0.3690
     81 O6         -2.5150  -45.4880  -11.1430 O.3       1 MAN229     -0.3461
     82 C1         -6.9670  -41.6670   -9.7010 C.3       1 MAN229      0.1888
     83 C2         -6.7180  -40.1730   -9.7820 C.3       1 MAN229      0.1406
     84 C3         -6.0020  -39.6690   -8.5390 C.3       1 MAN229      0.1144
     85 C4         -6.9650  -39.9200   -7.3810 C.3       1 MAN229      0.1119
     86 C5         -7.1610  -41.4030   -7.3080 C.3       1 MAN229      0.1130
     87 C6         -8.1050  -41.6740   -6.1540 C.3       1 MAN229      0.0730
     88 O2         -7.9920  -39.5580   -9.8560 O.3       1 MAN229     -0.3377
     89 O3         -5.5890  -38.3260   -8.7890 O.3       1 MAN229     -0.3864
     90 O4         -6.5090  -39.5700   -6.1110 O.3       1 MAN229     -0.3865
     91 O5         -7.7120  -41.9220   -8.5200 O.3       1 MAN229     -0.3405
     92 O6         -8.3720  -43.0570   -6.1430 O.3       1 MAN229     -0.3924
     93 C1         -7.9890  -38.3920  -10.7110 C.3       1 MAN229      0.1889
     94 C2         -9.3090  -37.6210  -10.6920 C.3       1 MAN229      0.1406
     95 C3        -10.3780  -38.6100  -11.0700 C.3       1 MAN229      0.1144
     96 C4        -10.0160  -39.2110  -12.4240 C.3       1 MAN229      0.1119
     97 C5         -8.6400  -39.8440  -12.3230 C.3       1 MAN229      0.1130
     98 C6         -8.0350  -40.5890  -13.5280 C.3       1 MAN229      0.0730
     99 O2         -9.2950  -36.6440  -11.7300 O.3       1 MAN229     -0.3378
    100 O3        -11.6070  -37.9270  -11.0930 O.3       1 MAN229     -0.3864
    101 O4        -10.9200  -40.2330  -12.6160 O.3       1 MAN229     -0.3865
    102 O5         -7.7710  -38.7840  -12.0330 O.3       1 MAN229     -0.3405
    103 O6         -8.8220  -40.3380  -14.6510 O.3       1 MAN229     -0.3924
    104 C1         -8.9180  -35.3310  -11.2980 C.3       1 MAN229      0.1885
    105 C2         -9.2920  -34.4030  -12.4290 C.3       1 MAN229      0.1341
    106 C3         -8.4440  -34.6810  -13.6530 C.3       1 MAN229      0.1141
    107 C4         -6.9690  -34.5390  -13.2750 C.3       1 MAN229      0.1119
    108 C5         -6.6760  -35.4140  -12.0690 C.3       1 MAN229      0.1130
    109 C6         -5.2790  -35.0860  -11.6240 C.3       1 MAN229      0.0730
    110 O2         -8.9890  -33.0910  -12.0000 O.3       1 MAN229     -0.3841
    111 O3         -8.7990  -33.7350  -14.6420 O.3       1 MAN229     -0.3864
    112 O4         -6.0720  -34.8990  -14.3150 O.3       1 MAN229     -0.3865
    113 O5         -7.5510  -35.1440  -10.9970 O.3       1 MAN229     -0.3405
    114 O6         -5.4270  -34.1410  -10.6130 O.3       1 MAN229     -0.3924
    115 C1         -1.3010  -45.9160  -11.8250 C.3       1 MAN229      0.1880
    116 C2         -1.6600  -45.7210  -13.3060 C.3       1 MAN229      0.1345
    117 C3         -0.5540  -45.1980  -14.2090 C.3       1 MAN229      0.1206
    118 C4         -0.5820  -43.9950  -13.3270 C.3       1 MAN229      0.1127
    119 C5          0.4820  -44.5070  -12.3800 C.3       1 MAN229      0.1214
    120 C6          1.1260  -43.2400  -12.0200 C.3       1 MAN229      0.1470
    121 O2         -2.5090  -44.6170  -13.1140 O.3       1 MAN229     -0.3841
    122 O3         -0.7160  -44.8420  -15.5760 O.3       1 MAN229     -0.3401
    123 O4         -0.4630  -42.7690  -13.9960 O.3       1 MAN229     -0.3865
    124 O5         -0.1620  -45.1930  -11.3450 O.3       1 MAN229     -0.3400
    125 O6          0.0650  -42.2930  -11.9130 O.3       1 MAN229     -0.3328
    126 C1         -0.5330  -45.9220  -16.5460 C.3       1 MAN229      0.1884
    127 C2          0.9200  -46.4310  -16.8180 C.3       1 MAN229      0.1341
    128 C3          1.8000  -45.3280  -17.3510 C.3       1 MAN229      0.1141
    129 C4          1.1110  -44.8980  -18.6450 C.3       1 MAN229      0.1119
    130 C5         -0.3740  -44.5540  -18.5120 C.3       1 MAN229      0.1130
    131 C6         -0.9630  -44.3260  -19.9070 C.3       1 MAN229      0.0730
    132 O2          1.0010  -47.3540  -17.9010 O.3       1 MAN229     -0.3841
    133 O3          3.1720  -45.7510  -17.5560 O.3       1 MAN229     -0.3864
    134 O4          1.7310  -43.7300  -19.0140 O.3       1 MAN229     -0.3865
    135 O5         -1.1570  -45.5040  -17.7660 O.3       1 MAN229     -0.3405
    136 O6         -1.8770  -43.2420  -19.9050 O.3       1 MAN229     -0.3924
    137 C1          0.5960  -41.7620  -10.7300 C.3       1 MAN229      0.2293
    138 C2          1.4820  -40.5630  -10.9040 C.3       1 MAN229      0.1398
    139 C3          2.5360  -40.9420   -9.8790 C.3       1 MAN229      0.1145
    140 C4          1.9050  -41.3930   -8.5330 C.3       1 MAN229      0.1119
    141 C5          0.6450  -42.3020   -8.6610 C.3       1 MAN229      0.1134
    142 C6         -0.1880  -42.5380   -7.4230 C.3       1 MAN229      0.0730
    143 O2          0.8070  -39.4340  -10.4690 O.3       1 MAN229     -0.3837
    144 O3          3.4890  -39.9300   -9.7700 O.3       1 MAN229     -0.3864
    145 O4          2.9030  -42.1350   -7.8960 O.3       1 MAN229     -0.3865
    146 O5         -0.2340  -41.7010   -9.6100 O.3       1 MAN229     -0.3360
    147 O6          0.6710  -43.0180   -6.4540 O.3       1 MAN229     -0.3924
@<TRIPOS>BOND
     1   71    1 1  
     2   71    2 1  
     3   72    3 1  
     4   73    4 1  
     5   74    5 1  
     6   75    6 1  
     7   76    7 1  
     8   76    8 1  
     9   77    9 1  
    10   79   10 1  
    11   82   11 1  
    12   83   12 1  
    13   84   13 1  
    14   85   14 1  
    15   86   15 1  
    16   87   16 1  
    17   87   17 1  
    18   89   18 1  
    19   90   19 1  
    20   92   20 1  
    21   93   21 1  
    22   94   22 1  
    23   95   23 1  
    24   96   24 1  
    25   97   25 1  
    26   98   26 1  
    27   98   27 1  
    28  100   28 1  
    29  101   29 1  
    30  103   30 1  
    31  104   31 1  
    32  105   32 1  
    33  106   33 1  
    34  107   34 1  
    35  108   35 1  
    36  109   36 1  
    37  109   37 1  
    38  110   38 1  
    39  111   39 1  
    40  112   40 1  
    41  114   41 1  
    42  115   42 1  
    43  116   43 1  
    44  117   44 1  
    45  118   45 1  
    46  119   46 1  
    47  120   47 1  
    48  121   48 1  
    49  123   49 1  
    50  126   50 1  
    51  127   51 1  
    52  128   52 1  
    53  129   53 1  
    54  130   54 1  
    55  131   55 1  
    56  131   56 1  
    57  132   57 1  
    58  133   58 1  
    59  134   59 1  
    60  136   60 1  
    61  138   61 1  
    62  139   62 1  
    63  140   63 1  
    64  141   64 1  
    65  142   65 1  
    66  142   66 1  
    67  143   67 1  
    68  144   68 1  
    69  145   69 1  
    70  147   70 1  
    71   72   71 1  
    72   71   80 1  
    73   73   72 1  
    74   72   77 1  
    75   73   74 1  
    76   78   73 1  
    77   74   75 1  
    78   74   79 1  
    79   75   76 1  
    80   75   80 1  
    81   76   81 1  
    82   82   83 1  
    83   82   91 1  
    84   83   84 1  
    85   83   88 1  
    86   84   85 1  
    87   84   89 1  
    88   86   85 1  
    89   85   90 1  
    90   86   87 1  
    91   91   86 1  
    92   87   92 1  
    93   93   94 1  
    94   93  102 1  
    95   94   95 1  
    96   94   99 1  
    97   95   96 1  
    98   95  100 1  
    99   97   96 1  
   100   96  101 1  
   101   97   98 1  
   102  102   97 1  
   103   98  103 1  
   104  104  105 1  
   105  104  113 1  
   106  105  106 1  
   107  105  110 1  
   108  106  107 1  
   109  106  111 1  
   110  108  107 1  
   111  107  112 1  
   112  108  109 1  
   113  113  108 1  
   114  109  114 1  
   115  115  116 1  
   116  115  124 1  
   117  116  117 1  
   118  116  121 1  
   119  117  118 1  
   120  117  122 1  
   121  119  118 1  
   122  118  123 1  
   123  119  120 1  
   124  124  119 1  
   125  120  125 1  
   126  126  127 1  
   127  126  135 1  
   128  127  128 1  
   129  127  132 1  
   130  128  129 1  
   131  128  133 1  
   132  130  129 1  
   133  129  134 1  
   134  130  131 1  
   135  135  130 1  
   136  131  136 1  
   137  137  138 1  
   138  137  146 1  
   139  138  139 1  
   140  138  143 1  
   141  139  140 1  
   142  139  144 1  
   143  141  140 1  
   144  140  145 1  
   145  141  142 1  
   146  146  141 1  
   147  142  147 1  
   148  137  125 1  
   149  120  137 1  
   150  122  126 1  
   151   81  115 1  
   152   99  104 1  
   153   88   93 1  
   154   82   78 1  
@<TRIPOS>SUBSTRUCTURE
     1 MAN229      1

