### 
### Created by X-TOOL on Fri Sep 26 17:34:29 2014
### 

@<TRIPOS>MOLECULE
2bj4_ligand
   59    61     1     0     0
SMALL
GAST_HUCK


@<TRIPOS>ATOM
      1 C10        22.3280   37.8300   26.4730 C.3       1 MOL        -0.0549
      2 C9         22.8310   37.4760   27.8720 C.3       1 MOL        -0.0213
      3 C8         21.8960   36.5560   28.6910 C.2       1 MOL        -0.0310
      4 C11        21.4450   35.3850   28.0690 C.ar      1 MOL        -0.0193
      5 C16        20.0530   35.2630   27.9140 C.ar      1 MOL        -0.0549
      6 C15        19.4740   34.1760   27.2650 C.ar      1 MOL        -0.0622
      7 C14        20.3150   33.2140   26.7010 C.ar      1 MOL        -0.0627
      8 C13        21.6990   33.3470   26.8270 C.ar      1 MOL        -0.0622
      9 C12        22.2720   34.4390   27.4850 C.ar      1 MOL        -0.0549
     10 C7         21.4700   36.9030   29.9820 C.2       1 MOL        -0.0248
     11 C1         21.8270   38.1050   30.6100 C.ar      1 MOL        -0.0376
     12 C2         22.2880   38.1710   31.9230 C.ar      1 MOL        -0.0657
     13 C3         22.5500   39.4020   32.5310 C.ar      1 MOL        -0.0340
     14 C4         22.3320   40.5890   31.8520 C.ar      1 MOL         0.0872
     15 O4         22.5760   41.7880   32.4750 O.3       1 MOL        -0.3333
     16 C5         21.8170   40.5380   30.5550 C.ar      1 MOL        -0.0340
     17 C6         21.5570   39.3150   29.9580 C.ar      1 MOL        -0.0657
     18 C17        20.6680   36.0650   30.8100 C.ar      1 MOL        -0.0376
     19 C18        19.5320   36.5250   31.4830 C.ar      1 MOL        -0.0657
     20 C19        18.8410   35.6580   32.3350 C.ar      1 MOL        -0.0338
     21 C20        19.2900   34.3530   32.5780 C.ar      1 MOL         0.0909
     22 O20        18.6420   33.4890   33.4240 O.3       1 MOL        -0.3129
     23 C23        17.6270   34.0990   34.1790 C.3       1 MOL         0.1102
     24 C24        16.9310   32.9010   34.8220 C.3       1 MOL        -0.0039
     25 N24        16.3480   33.3540   36.0830 N.4       1 MOL         0.2328
     26 C25        15.3510   34.4330   35.8490 C.3       1 MOL        -0.0433
     27 C26        15.7640   32.1680   36.7430 C.3       1 MOL        -0.0433
     28 C21        20.4560   33.9020   31.9590 C.ar      1 MOL        -0.0338
     29 C22        21.1330   34.7600   31.0820 C.ar      1 MOL        -0.0657
     30 H1         23.0592   38.4837   25.9750 H         1 MOL         0.0254
     31 H2         21.3631   38.3522   26.5515 H         1 MOL         0.0254
     32 H3         22.1998   36.9089   25.8855 H         1 MOL         0.0254
     33 H4         22.9650   38.4125   28.4333 H         1 MOL         0.0435
     34 H5         23.8017   36.9692   27.7672 H         1 MOL         0.0435
     35 H6         19.4104   36.0398   28.3124 H         1 MOL         0.0617
     36 H7         18.3964   34.0786   27.1990 H         1 MOL         0.0615
     37 H8         19.8952   32.3685   26.1682 H         1 MOL         0.0609
     38 H9         22.3445   32.5854   26.4046 H         1 MOL         0.0615
     39 H10        23.3496   34.5444   27.5377 H         1 MOL         0.0617
     40 H11        22.4457   37.2550   32.4808 H         1 MOL         0.0575
     41 H12        22.9285   39.4278   33.5465 H         1 MOL         0.0543
     42 H13        22.3782   42.5007   31.8788 H         1 MOL         0.2484
     43 H14        21.6203   41.4567   30.0144 H         1 MOL         0.0543
     44 H15        21.1336   39.2940   28.9603 H         1 MOL         0.0575
     45 H16        19.1901   37.5444   31.3455 H         1 MOL         0.0575
     46 H17        17.9352   36.0040   32.8197 H         1 MOL         0.0543
     47 H18        16.9357   34.6621   33.5348 H         1 MOL         0.0668
     48 H19        18.0475   34.7712   34.9415 H         1 MOL         0.0668
     49 H20        17.6611   32.1006   35.0124 H         1 MOL         0.0841
     50 H21        16.1399   32.5251   34.1566 H         1 MOL         0.0841
     51 H22        17.0780   33.7256   36.6705 H         1 MOL         0.2029
     52 H23        14.9276   34.7560   36.8115 H         1 MOL         0.0777
     53 H24        14.5455   34.0541   35.2028 H         1 MOL         0.0777
     54 H25        15.8427   35.2868   35.3597 H         1 MOL         0.0777
     55 H26        16.5454   31.4077   36.8890 H         1 MOL         0.0777
     56 H27        14.9633   31.7544   36.1123 H         1 MOL         0.0777
     57 H28        15.3486   32.4589   37.7191 H         1 MOL         0.0777
     58 H29        20.8322   32.9041   32.1533 H         1 MOL         0.0543
     59 H30        22.0389   34.4121   30.5990 H         1 MOL         0.0575
@<TRIPOS>BOND
     1    1    2 1  
     2    2    3 1  
     3    3    4 1  
     4    3   10 2  
     5    4    5 ar 
     6    4    9 ar 
     7    5    6 ar 
     8    6    7 ar 
     9    7    8 ar 
    10    8    9 ar 
    11   10   11 1  
    12   10   18 1  
    13   11   12 ar 
    14   11   17 ar 
    15   12   13 ar 
    16   13   14 ar 
    17   14   15 1  
    18   14   16 ar 
    19   16   17 ar 
    20   18   19 ar 
    21   18   29 ar 
    22   19   20 ar 
    23   20   21 ar 
    24   21   22 1  
    25   21   28 ar 
    26   22   23 1  
    27   23   24 1  
    28   24   25 1  
    29   25   26 1  
    30   25   27 1  
    31   28   29 ar 
    32    1   30 1  
    33    1   31 1  
    34    1   32 1  
    35    2   33 1  
    36    2   34 1  
    37    5   35 1  
    38    6   36 1  
    39    7   37 1  
    40    8   38 1  
    41    9   39 1  
    42   12   40 1  
    43   13   41 1  
    44   15   42 1  
    45   16   43 1  
    46   17   44 1  
    47   19   45 1  
    48   20   46 1  
    49   23   47 1  
    50   23   48 1  
    51   24   49 1  
    52   24   50 1  
    53   25   51 1  
    54   26   52 1  
    55   26   53 1  
    56   26   54 1  
    57   27   55 1  
    58   27   56 1  
    59   27   57 1  
    60   28   58 1  
    61   29   59 1  
@<TRIPOS>SUBSTRUCTURE
     1 MOL         1

