### 
### Created by X-TOOL on Fri Sep 26 17:34:46 2014
### 

@<TRIPOS>MOLECULE
2k7l_ligand
  317   318     1     0     0
SMALL
GAST_HUCK


@<TRIPOS>ATOM
      1 N          -2.7210   -5.4690   24.0140 N.4       1 GLU         0.2380
      2 CA         -1.4650   -6.2330   23.7930 C.3       1 GLU         0.0665
      3 C          -0.5190   -5.4800   22.8630 C.2       1 GLU         0.2269
      4 O          -0.8550   -4.4130   22.3500 O.2       1 GLU        -0.3907
      5 CB         -1.8210   -7.5950   23.1950 C.3       1 GLU         0.0194
      6 CG         -0.9450   -8.7290   23.7010 C.3       1 GLU         0.0075
      7 CD         -1.6460   -9.5910   24.7330 C.2       1 GLU         0.0351
      8 OE1        -2.5050  -10.4080   24.3400 O.co2     1 GLU        -0.5690
      9 OE2        -1.3350   -9.4490   25.9340 O.co2     1 GLU        -0.5690
     10 N           0.6660   -6.0440   22.6510 N.am      1 GLU        -0.2595
     11 CA          1.6620   -5.4260   21.7830 C.3       1 GLU         0.1424
     12 C           1.1370   -5.2980   20.3570 C.2       1 GLU         0.2057
     13 O           1.3060   -6.2020   19.5390 O.2       1 GLU        -0.3943
     14 CB          2.9550   -6.2440   21.7920 C.3       1 GLU         0.0406
     15 CG          2.7050   -7.7270   21.6020 C.2       1 GLU         0.0393
     16 OD1         1.6030   -8.0890   21.1370 O.co2     1 GLU        -0.5688
     17 OD2         3.6100   -8.5270   21.9180 O.co2     1 GLU        -0.5688
     18 N           0.5020   -4.1680   20.0650 N.am      1 GLU        -0.2610
     19 CA         -0.0460   -3.9190   18.7370 C.3       1 GLU         0.1612
     20 CB         -0.7890   -2.5790   18.7110 C.3       1 GLU         0.1262
     21 CG2        -1.1430   -2.1100   17.3120 C.3       1 GLU        -0.0298
     22 OG1        -1.9890   -2.6950   19.4780 O.3       1 GLU        -0.2685
     23 P          -2.2910   -1.2470   20.1190 P.3       1 GLU         0.2014
     24 O1P        -3.7150   -1.1700   20.5150 O.co2     1 GLU        -0.5537
     25 O2P        -1.3630   -1.0310   21.4160 O.co2     1 GLU        -0.5537
     26 O3P        -1.9740   -0.1000   19.0340 O.co2     1 GLU        -0.5537
     27 C           1.0660   -3.9100   17.6920 C.2       1 GLU         0.2069
     28 O           1.5820   -2.8510   17.3350 O.2       1 GLU        -0.3943
     29 N           1.4310   -5.0900   17.2010 N.am      1 GLU        -0.2621
     30 CA          2.4750   -5.1980   16.2000 C.3       1 GLU         0.1423
     31 C           1.8860   -5.1120   14.7940 C.2       1 GLU         0.2056
     32 O           2.1820   -5.9380   13.9310 O.2       1 GLU        -0.3943
     33 CB          3.2340   -6.5150   16.3730 C.3       1 GLU         0.0406
     34 CG          4.6720   -6.4240   15.9040 C.2       1 GLU         0.0393
     35 OD1         5.4550   -5.6790   16.5310 O.co2     1 GLU        -0.5688
     36 OD2         5.0170   -7.0990   14.9120 O.co2     1 GLU        -0.5688
     37 N           1.0570   -4.0960   14.5710 N.am      1 GLU        -0.2635
     38 CA          0.4300   -3.8840   13.2770 C.3       1 GLU         0.1325
     39 C           1.3400   -3.0730   12.3620 C.2       1 GLU         0.2041
     40 O           1.3880   -3.2960   11.1540 O.2       1 GLU        -0.3944
     41 CB         -0.9130   -3.1700   13.4460 C.3       1 GLU        -0.0008
     42 CG         -0.7900   -1.7770   14.0400 C.3       1 GLU         0.0044
     43 CD         -2.1390   -1.1330   14.2980 C.2       1 GLU         0.0350
     44 OE1        -3.0400   -1.8280   14.8120 O.co2     1 GLU        -0.5690
     45 OE2        -2.2930    0.0670   13.9850 O.co2     1 GLU        -0.5690
     46 N           2.0460   -2.1180   12.9530 N.am      1 GLU        -0.2622
     47 CA          2.9480   -1.2530   12.2110 C.3       1 GLU         0.1423
     48 C           4.3160   -1.9010   12.0180 C.2       1 GLU         0.2057
     49 O           5.0610   -1.5390   11.1060 O.2       1 GLU        -0.3943
     50 CB          3.0970    0.0840   12.9360 C.3       1 GLU         0.0406
     51 CG          2.9510    1.2690   12.0020 C.2       1 GLU         0.0393
     52 OD1         1.8020    1.6840   11.7440 O.co2     1 GLU        -0.5688
     53 OD2         3.9860    1.7830   11.5280 O.co2     1 GLU        -0.5688
     54 N           4.6450   -2.8520   12.8840 N.am      1 GLU        -0.2621
     55 CA          5.9280   -3.5430   12.8160 C.3       1 GLU         0.1423
     56 C           6.2040   -4.0770   11.4180 C.2       1 GLU         0.2057
     57 O           7.2370   -3.7790   10.8180 O.2       1 GLU        -0.3943
     58 CB          5.9620   -4.6810   13.8220 C.3       1 GLU         0.0406
     59 CG          7.3740   -5.1050   14.1740 C.2       1 GLU         0.0393
     60 OD1         8.0210   -5.7670   13.3350 O.co2     1 GLU        -0.5688
     61 OD2         7.8330   -4.7750   15.2880 O.co2     1 GLU        -0.5688
     62 N           5.2740   -4.8640   10.9110 N.am      1 GLU        -0.2624
     63 CA          5.4000   -5.4470    9.5880 C.3       1 GLU         0.1369
     64 C           5.0460   -4.4350    8.5040 C.2       1 GLU         0.2054
     65 O           5.4560   -4.5760    7.3520 O.2       1 GLU        -0.3942
     66 CB          4.5010   -6.6770    9.4720 C.3       1 GLU         0.0145
     67 CG          3.1330   -6.4890   10.0510 C.2       1 GLU        -0.0027
     68 ND1         2.5550   -7.3870   10.9220 N.2       1 GLU        -0.3252
     69 CD2         2.2270   -5.4980    9.8780 C.2       1 GLU         0.0291
     70 CE1         1.3510   -6.9590   11.2590 C.2       1 GLU         0.0907
     71 NE2         1.1290   -5.8150   10.6390 N.pl3     1 GLU        -0.2752
     72 N           4.2830   -3.4130    8.8790 N.am      1 GLU        -0.2636
     73 CA          3.8750   -2.3760    7.9380 C.3       1 GLU         0.1312
     74 C           5.0910   -1.7300    7.2830 C.2       1 GLU         0.2039
     75 O           5.0440   -1.3230    6.1240 O.2       1 GLU        -0.3944
     76 CB          3.0390   -1.3100    8.6480 C.3       1 GLU        -0.0101
     77 CG          2.7460   -0.0590    7.8180 C.3       1 GLU        -0.0425
     78 CD1         1.7540   -0.3730    6.7100 C.3       1 GLU        -0.0625
     79 CD2         2.2250    1.0570    8.7090 C.3       1 GLU        -0.0625
     80 N           6.1770   -1.6330    8.0320 N.am      1 GLU        -0.2635
     81 CA          7.3950   -1.0420    7.5180 C.3       1 GLU         0.1335
     82 C           8.2330   -2.0840    6.7750 C.2       1 GLU         0.2043
     83 O           8.9700   -1.7550    5.8460 O.2       1 GLU        -0.3944
     84 CB          8.2280   -0.3960    8.6440 C.3       1 GLU        -0.0037
     85 CG1         7.4400    0.7520    9.2810 C.3       1 GLU        -0.0491
     86 CG2         9.5640    0.1060    8.1090 C.3       1 GLU        -0.0582
     87 CD1         8.1740    1.4330   10.4160 C.3       1 GLU        -0.0648
     88 N           8.1150   -3.3430    7.1980 N.am      1 GLU        -0.2621
     89 CA          8.8610   -4.4370    6.5810 C.3       1 GLU         0.1390
     90 C           8.4230   -4.6670    5.1420 C.2       1 GLU         0.2057
     91 O           9.2500   -4.8470    4.2510 O.2       1 GLU        -0.3942
     92 CB          8.7100   -5.7240    7.4150 C.3       1 GLU         0.0163
     93 CG          8.4000   -6.9620    6.5980 C.ar      1 GLU        -0.0493
     94 CD1         7.1460   -7.1400    6.0330 C.ar      1 GLU        -0.0685
     95 CD2         9.3650   -7.9370    6.3760 C.ar      1 GLU        -0.0685
     96 CE1         6.8570   -8.2490    5.2720 C.ar      1 GLU        -0.0398
     97 CE2         9.0820   -9.0560    5.6160 C.ar      1 GLU        -0.0398
     98 CZ          7.8260   -9.2070    5.0650 C.ar      1 GLU         0.0805
     99 OH          7.5410  -10.3170    4.3030 O.3       1 GLU        -0.3376
    100 N           7.1240   -4.6610    4.9210 N.am      1 GLU        -0.2636
    101 CA          6.5900   -4.8690    3.5850 C.3       1 GLU         0.1312
    102 C           6.7830   -3.6140    2.7450 C.2       1 GLU         0.2039
    103 O           6.7110   -3.6530    1.5180 O.2       1 GLU        -0.3944
    104 CB          5.1150   -5.3070    3.6380 C.3       1 GLU        -0.0101
    105 CG          4.0550   -4.2080    3.4910 C.3       1 GLU        -0.0425
    106 CD1         4.2500   -3.1380    4.5430 C.3       1 GLU        -0.0625
    107 CD2         4.0680   -3.6080    2.0930 C.3       1 GLU        -0.0625
    108 N           7.0250   -2.4990    3.4150 N.am      1 GLU        -0.2636
    109 CA          7.2300   -1.2400    2.7300 C.3       1 GLU         0.1325
    110 C           8.4760   -1.2980    1.8460 C.2       1 GLU         0.2040
    111 O           8.5520   -0.6260    0.8180 O.2       1 GLU        -0.3944
    112 CB          7.3390   -0.0980    3.7540 C.3       1 GLU        -0.0008
    113 CG          8.7420    0.4700    3.9210 C.3       1 GLU         0.0044
    114 CD          8.8190    1.5220    5.0110 C.2       1 GLU         0.0350
    115 OE1         7.7600    2.0680    5.3850 O.co2     1 GLU        -0.5690
    116 OE2         9.9390    1.7990    5.4900 O.co2     1 GLU        -0.5690
    117 N           9.4570   -2.0920    2.2690 N.am      1 GLU        -0.2636
    118 CA         10.7130   -2.2220    1.5340 C.3       1 GLU         0.1325
    119 C          10.6190   -3.2190    0.3850 C.2       1 GLU         0.2040
    120 O          11.1040   -2.9520   -0.7150 O.2       1 GLU        -0.3944
    121 CB         11.8560   -2.6030    2.4800 C.3       1 GLU        -0.0008
    122 CG         11.5830   -3.8370    3.3230 C.3       1 GLU         0.0044
    123 CD         12.8570   -4.4990    3.8120 C.2       1 GLU         0.0350
    124 OE1        13.4310   -5.3110    3.0570 O.co2     1 GLU        -0.5690
    125 OE2        13.2790   -4.2060    4.9510 O.co2     1 GLU        -0.5690
    126 N          10.0010   -4.3620    0.6340 N.am      1 GLU        -0.2635
    127 CA          9.8570   -5.3880   -0.4040 C.3       1 GLU         0.1335
    128 C           9.2790   -4.8010   -1.6820 C.2       1 GLU         0.2042
    129 O           9.5170   -5.3080   -2.7780 O.2       1 GLU        -0.3944
    130 CB          8.9810   -6.5780    0.0460 C.3       1 GLU        -0.0037
    131 CG1         7.7350   -6.0920    0.7790 C.3       1 GLU        -0.0491
    132 CG2         9.7760   -7.5210    0.9320 C.3       1 GLU        -0.0582
    133 CD1         6.5060   -6.0290   -0.0950 C.3       1 GLU        -0.0648
    134 N           8.5230   -3.7280   -1.5320 N.am      1 GLU        -0.2637
    135 CA          7.9100   -3.0580   -2.6650 C.3       1 GLU         0.1312
    136 C           8.9340   -2.3260   -3.5040 C.2       1 GLU         0.2039
    137 O           9.3830   -2.8130   -4.5410 O.2       1 GLU        -0.3944
    138 CB          6.8640   -2.0590   -2.1790 C.3       1 GLU        -0.0101
    139 CG          6.4780   -0.9830   -3.2030 C.3       1 GLU        -0.0425
    140 CD1         5.8920   -1.6160   -4.4530 C.3       1 GLU        -0.0625
    141 CD2         5.5040    0.0090   -2.5900 C.3       1 GLU        -0.0625
    142 N           9.2590   -1.1330   -3.0530 N.am      1 GLU        -0.2635
    143 CA         10.1840   -0.2800   -3.7510 C.3       1 GLU         0.1332
    144 C          11.0690    0.4650   -2.7700 C.2       1 GLU         0.2041
    145 O          11.5030    1.5870   -3.0300 O.2       1 GLU        -0.3944
    146 CB          9.4300    0.7350   -4.6290 C.3       1 GLU        -0.0063
    147 CG1         8.5590    0.0310   -5.6620 C.3       1 GLU        -0.0584
    148 CG2         8.5870    1.6570   -3.7620 C.3       1 GLU        -0.0584
    149 N          11.3220   -0.1670   -1.6370 N.am      1 GLU        -0.2637
    150 CA         12.1470    0.4340   -0.6050 C.3       1 GLU         0.1310
    151 C          13.0640   -0.6000    0.0400 C.2       1 GLU         0.2033
    152 O          13.2610   -0.5990    1.2550 O.2       1 GLU        -0.3944
    153 CB         11.2710    1.1050    0.4550 C.3       1 GLU        -0.0092
    154 CG         10.6960    2.4380    0.0090 C.3       1 GLU        -0.0156
    155 CD         10.3030    3.3010    1.1970 C.3       1 GLU         0.0627
    156 NE         11.4000    4.1600    1.6360 N.pl3     1 GLU        -0.2723
    157 CZ         11.4580    4.7360    2.8350 C.cat     1 GLU         0.2882
    158 NH1        10.4830    4.5480    3.7160 N.pl3     1 GLU        -0.2849
    159 NH2        12.4920    5.5020    3.1530 N.pl3     1 GLU        -0.2849
    160 N          13.6260   -1.4800   -0.7840 N.am      1 GLU        -0.2692
    161 CA         14.5240   -2.5200   -0.2970 C.3       1 GLU         0.0967
    162 C          15.7210   -1.9160    0.4300 C.2       1 GLU         0.0603
    163 O          16.0230   -2.3730    1.5530 O.co2     1 GLU        -0.5666
    164 CB         15.0330   -3.4070   -1.4480 C.3       1 GLU        -0.0118
    165 CG1        13.8860   -4.1910   -2.0660 C.3       1 GLU        -0.0590
    166 CG2        15.7410   -2.5650   -2.4990 C.3       1 GLU        -0.0590
    167 OXT        16.3480   -0.9920   -0.1300 O.co2     1 GLU        -0.5666
    168 H1         -3.3261   -5.9884   24.6306 H         1 GLU         0.2015
    169 H2         -3.1856   -5.3235   23.1314 H         1 GLU         0.2015
    170 H3         -2.5030   -4.5771   24.4300 H         1 GLU         0.2015
    171 H4         -0.9626   -6.3832   24.7600 H         1 GLU         0.1099
    172 H5         -1.7137   -7.5338   22.1020 H         1 GLU         0.0363
    173 H6         -2.8667   -7.8236   23.4485 H         1 GLU         0.0363
    174 H7         -0.0406   -8.2994   24.1565 H         1 GLU         0.0434
    175 H8         -0.6605   -9.3622   22.8477 H         1 GLU         0.0434
    176 H9          0.8797   -6.9129   23.0974 H         1 GLU         0.1886
    177 H10         1.8808   -4.4185   22.1665 H         1 GLU         0.0819
    178 H11         3.4616   -6.0924   22.7565 H         1 GLU         0.0478
    179 H12         3.6031   -5.8884   20.9775 H         1 GLU         0.0478
    180 H13         0.3973   -3.4706   20.7740 H         1 GLU         0.1884
    181 H14        -0.7554   -4.7233   18.4924 H         1 GLU         0.0830
    182 H15        -0.1406   -1.8198   19.1727 H         1 GLU         0.0695
    183 H16        -1.6716   -1.1472   17.3709 H         1 GLU         0.0260
    184 H17        -1.7916   -2.8554   16.8285 H         1 GLU         0.0260
    185 H18        -0.2225   -1.9874   16.7224 H         1 GLU         0.0260
    186 H19         0.9772   -5.9190   17.5279 H         1 GLU         0.1884
    187 H20         3.1794   -4.3643   16.3366 H         1 GLU         0.0819
    188 H21         2.7223   -7.2957   15.7911 H         1 GLU         0.0478
    189 H22         3.2275   -6.7882   17.4385 H         1 GLU         0.0478
    190 H23         0.8592   -3.4589   15.3160 H         1 GLU         0.1883
    191 H24         0.2503   -4.8645   12.8120 H         1 GLU         0.0801
    192 H25        -1.5482   -3.7759   14.1088 H         1 GLU         0.0330
    193 H26        -1.3891   -3.0860   12.4580 H         1 GLU         0.0330
    194 H27        -0.2252   -1.1438   13.3399 H         1 GLU         0.0433
    195 H28        -0.2448   -1.8469   14.9928 H         1 GLU         0.0433
    196 H29         1.9547   -1.9891   13.9405 H         1 GLU         0.1884
    197 H30         2.5112   -1.0676   11.2186 H         1 GLU         0.0819
    198 H31         4.0921    0.1233   13.4031 H         1 GLU         0.0478
    199 H32         2.3233    0.1512   13.7150 H         1 GLU         0.0478
    200 H33         3.9957   -3.1014   13.6024 H         1 GLU         0.1884
    201 H34         6.7201   -2.8244   13.0732 H         1 GLU         0.0819
    202 H35         5.4308   -5.5446   13.3953 H         1 GLU         0.0478
    203 H36         5.4527   -4.3546   14.7407 H         1 GLU         0.0478
    204 H37         4.4587   -5.0645   11.4542 H         1 GLU         0.1885
    205 H38         6.4446   -5.7598    9.4436 H         1 GLU         0.0817
    206 H39         4.9874   -7.5117    9.9981 H         1 GLU         0.0420
    207 H40         4.3939   -6.9278    8.4063 H         1 GLU         0.0420
    208 H41         2.3467   -4.6147    9.2524 H         1 GLU         0.0729
    209 H42         0.6602   -7.4637   11.9328 H         1 GLU         0.1199
    210 H43         0.2704   -5.2510   10.7140 H         1 GLU         0.2361
    211 H44         3.9811   -3.3537    9.8305 H         1 GLU         0.1883
    212 H45         3.2597   -2.8403    7.1532 H         1 GLU         0.0800
    213 H46         3.5802   -0.9993    9.5538 H         1 GLU         0.0315
    214 H47         2.0780   -1.7635    8.9324 H         1 GLU         0.0315
    215 H48         3.6853    0.2779    7.3551 H         1 GLU         0.0298
    216 H49         1.5567    0.5378    6.1256 H         1 GLU         0.0232
    217 H50         0.8141   -0.7362    7.1513 H         1 GLU         0.0232
    218 H51         2.1732   -1.1478    6.0512 H         1 GLU         0.0232
    219 H52         2.9585    1.2660    9.5016 H         1 GLU         0.0232
    220 H53         1.2719    0.7487    9.1635 H         1 GLU         0.0232
    221 H54         2.0676    1.9639    8.1067 H         1 GLU         0.0232
    222 H55         6.1565   -1.9745    8.9717 H         1 GLU         0.1883
    223 H56         7.1147   -0.2531    6.8045 H         1 GLU         0.0803
    224 H57         8.4253   -1.1564    9.4140 H         1 GLU         0.0345
    225 H58         6.4932    0.3500    9.6706 H         1 GLU         0.0267
    226 H59         7.2281    1.5016    8.5044 H         1 GLU         0.0267
    227 H60        10.1153   -0.7311    7.6558 H         1 GLU         0.0235
    228 H61        10.1542    0.5292    8.9352 H         1 GLU         0.0235
    229 H62         9.3867    0.8821    7.3499 H         1 GLU         0.0235
    230 H63         7.5502    2.2427   10.8225 H         1 GLU         0.0230
    231 H64         9.1201    1.8515   10.0421 H         1 GLU         0.0230
    232 H65         8.3851    0.6998   11.2084 H         1 GLU         0.0230
    233 H66         7.4984   -3.5440    7.9592 H         1 GLU         0.1885
    234 H67         9.9253   -4.1594    6.5700 H         1 GLU         0.0821
    235 H68         7.8933   -5.5736    8.1363 H         1 GLU         0.0453
    236 H69         9.6514   -5.8958    7.9575 H         1 GLU         0.0453
    237 H70         6.3790   -6.3911    6.1941 H         1 GLU         0.0530
    238 H71        10.3534   -7.8182    6.8049 H         1 GLU         0.0530
    239 H72         5.8714   -8.3689    4.8370 H         1 GLU         0.0525
    240 H73         9.8427   -9.8110    5.4536 H         1 GLU         0.0525
    241 H74         6.6418  -10.2707    4.0000 H         1 GLU         0.2458
    242 H75         6.4956   -4.5110    5.6843 H         1 GLU         0.1883
    243 H76         7.1617   -5.6816    3.1130 H         1 GLU         0.0800
    244 H77         4.9499   -5.7992    4.6078 H         1 GLU         0.0315
    245 H78         4.9552   -6.0324    2.8267 H         1 GLU         0.0315
    246 H79         3.0680   -4.6662    3.6514 H         1 GLU         0.0298
    247 H80         3.4818   -2.3601    4.4215 H         1 GLU         0.0232
    248 H81         5.2477   -2.6890    4.4289 H         1 GLU         0.0232
    249 H82         4.1622   -3.5869    5.5434 H         1 GLU         0.0232
    250 H83         3.9245   -4.4064    1.3500 H         1 GLU         0.0232
    251 H84         5.0335   -3.1116    1.9160 H         1 GLU         0.0232
    252 H85         3.2553   -2.8723    2.0021 H         1 GLU         0.0232
    253 H86         7.0671   -2.5264    4.4137 H         1 GLU         0.1883
    254 H87         6.3590   -1.0482    2.0861 H         1 GLU         0.0801
    255 H88         7.0044   -0.4790    4.7302 H         1 GLU         0.0330
    256 H89         6.6747    0.7172    3.4312 H         1 GLU         0.0330
    257 H90         9.0535    0.9253    2.9693 H         1 GLU         0.0433
    258 H91         9.4270   -0.3521    4.1758 H         1 GLU         0.0433
    259 H92         9.3309   -2.6137    3.1128 H         1 GLU         0.1883
    260 H93        10.9459   -1.2381    1.1008 H         1 GLU         0.0801
    261 H94        12.0394   -1.7562    3.1577 H         1 GLU         0.0330
    262 H95        12.7558   -2.7905    1.8756 H         1 GLU         0.0330
    263 H96        11.0195   -4.5612    2.7164 H         1 GLU         0.0433
    264 H97        10.9812   -3.5424    4.1954 H         1 GLU         0.0433
    265 H98         9.6256   -4.5292    1.5457 H         1 GLU         0.1883
    266 H99        10.8623   -5.7745   -0.6275 H         1 GLU         0.0803
    267 H100        8.6620   -7.1297   -0.8506 H         1 GLU         0.0345
    268 H101        7.9339   -5.0843    1.1725 H         1 GLU         0.0267
    269 H102        7.5329   -6.7786    1.6143 H         1 GLU         0.0267
    270 H103       10.6710   -7.8640    0.3923 H         1 GLU         0.0235
    271 H104        9.1529   -8.3880    1.1969 H         1 GLU         0.0235
    272 H105       10.0800   -6.9942    1.8485 H         1 GLU         0.0235
    273 H106        5.6517   -5.6720    0.4989 H         1 GLU         0.0230
    274 H107        6.2848   -7.0317   -0.4895 H         1 GLU         0.0230
    275 H108        6.6858   -5.3374   -0.9312 H         1 GLU         0.0230
    276 H109        8.3686   -3.3671   -0.6123 H         1 GLU         0.1883
    277 H110        7.4174   -3.8155   -3.2923 H         1 GLU         0.0800
    278 H111        7.2613   -1.5547   -1.2858 H         1 GLU         0.0315
    279 H112        5.9554   -2.6179   -1.9108 H         1 GLU         0.0315
    280 H113        7.3892   -0.4376   -3.4897 H         1 GLU         0.0298
    281 H114        5.6231   -0.8277   -5.1716 H         1 GLU         0.0232
    282 H115        4.9930   -2.1909   -4.1860 H         1 GLU         0.0232
    283 H116        6.6354   -2.2878   -4.9069 H         1 GLU         0.0232
    284 H117        5.9513    0.4524   -1.6882 H         1 GLU         0.0232
    285 H118        4.5728   -0.5105   -2.3199 H         1 GLU         0.0232
    286 H119        5.2828    0.8033   -3.3181 H         1 GLU         0.0232
    287 H120        8.8507   -0.8096   -2.1994 H         1 GLU         0.1883
    288 H121       10.8180   -0.9054   -4.3966 H         1 GLU         0.0802
    289 H122       10.1723    1.3452   -5.1644 H         1 GLU         0.0343
    290 H123        8.0347    0.7813   -6.2720 H         1 GLU         0.0234
    291 H124        7.8220   -0.6041   -5.1486 H         1 GLU         0.0234
    292 H125        9.1914   -0.5924   -6.3112 H         1 GLU         0.0234
    293 H126        9.2313    2.1560   -3.0232 H         1 GLU         0.0234
    294 H127        7.8185    1.0682   -3.2399 H         1 GLU         0.0234
    295 H128        8.1015    2.4138   -4.3957 H         1 GLU         0.0234
    296 H129       10.9372   -1.0778   -1.4878 H         1 GLU         0.1883
    297 H130       12.7755    1.2055   -1.0738 H         1 GLU         0.0800
    298 H131       11.8802    1.2722    1.3555 H         1 GLU         0.0313
    299 H132       10.4373    0.4294    0.6966 H         1 GLU         0.0313
    300 H133        9.8050    2.2540   -0.6093 H         1 GLU         0.0301
    301 H134       11.4514    2.9719   -0.5862 H         1 GLU         0.0301
    302 H135       10.0097    2.6457    2.0304 H         1 GLU         0.0689
    303 H136        9.4499    3.9333    0.9099 H         1 GLU         0.0689
    304 H137       12.1747    4.3302    0.9789 H         1 GLU         0.2642
    305 H138       10.5325    4.9958    4.6423 H         1 GLU         0.2615
    306 H139        9.6770    3.9544    3.4733 H         1 GLU         0.2615
    307 H140       13.2510    5.6509    2.4729 H         1 GLU         0.2615
    308 H141       12.5364    5.9483    4.0802 H         1 GLU         0.2615
    309 H142       13.4274   -1.4268   -1.7626 H         1 GLU         0.1875
    310 H143       13.9655   -3.1508    0.4102 H         1 GLU         0.0729
    311 H144       15.7580   -4.1245   -1.0362 H         1 GLU         0.0336
    312 H145       14.2694   -4.8175   -2.8849 H         1 GLU         0.0234
    313 H146       13.1343   -3.4915   -2.4605 H         1 GLU         0.0234
    314 H147       13.4246   -4.8312   -1.2997 H         1 GLU         0.0234
    315 H148       16.5650   -2.0084   -2.0287 H         1 GLU         0.0234
    316 H149       15.0266   -1.8564   -2.9435 H         1 GLU         0.0234
    317 H150       16.1434   -3.2214   -3.2846 H         1 GLU         0.0234
@<TRIPOS>BOND
     1    1    2 1  
     2    2    3 1  
     3    2    5 1  
     4    3    4 2  
     5    3   10 am 
     6    5    6 1  
     7    6    7 1  
     8    7    8 ar 
     9    7    9 ar 
    10   10   11 1  
    11   11   12 1  
    12   11   14 1  
    13   12   13 2  
    14   12   18 am 
    15   14   15 1  
    16   15   16 ar 
    17   15   17 ar 
    18   18   19 1  
    19   19   20 1  
    20   19   27 1  
    21   20   21 1  
    22   20   22 1  
    23   22   23 1  
    24   23   24 ar 
    25   23   25 ar 
    26   23   26 ar 
    27   27   28 2  
    28   27   29 am 
    29   29   30 1  
    30   30   31 1  
    31   30   33 1  
    32   31   32 2  
    33   31   37 am 
    34   33   34 1  
    35   34   35 ar 
    36   34   36 ar 
    37   37   38 1  
    38   38   39 1  
    39   38   41 1  
    40   39   40 2  
    41   39   46 am 
    42   41   42 1  
    43   42   43 1  
    44   43   44 ar 
    45   43   45 ar 
    46   46   47 1  
    47   47   48 1  
    48   47   50 1  
    49   48   49 2  
    50   48   54 am 
    51   50   51 1  
    52   51   52 ar 
    53   51   53 ar 
    54   54   55 1  
    55   55   56 1  
    56   55   58 1  
    57   56   57 2  
    58   56   62 am 
    59   58   59 1  
    60   59   60 ar 
    61   59   61 ar 
    62   62   63 1  
    63   63   64 1  
    64   63   66 1  
    65   64   65 2  
    66   64   72 am 
    67   66   67 1  
    68   67   68 1  
    69   67   69 2  
    70   68   70 2  
    71   69   71 1  
    72   70   71 1  
    73   72   73 1  
    74   73   74 1  
    75   73   76 1  
    76   74   75 2  
    77   74   80 am 
    78   76   77 1  
    79   77   78 1  
    80   77   79 1  
    81   80   81 1  
    82   81   82 1  
    83   81   84 1  
    84   82   83 2  
    85   82   88 am 
    86   84   85 1  
    87   84   86 1  
    88   85   87 1  
    89   88   89 1  
    90   89   90 1  
    91   89   92 1  
    92   90   91 2  
    93   90  100 am 
    94   92   93 1  
    95   93   94 ar 
    96   93   95 ar 
    97   94   96 ar 
    98   95   97 ar 
    99   96   98 ar 
   100   97   98 ar 
   101   98   99 1  
   102  100  101 1  
   103  101  102 1  
   104  101  104 1  
   105  102  103 2  
   106  102  108 am 
   107  104  105 1  
   108  105  106 1  
   109  105  107 1  
   110  108  109 1  
   111  109  110 1  
   112  109  112 1  
   113  110  111 2  
   114  110  117 am 
   115  112  113 1  
   116  113  114 1  
   117  114  115 ar 
   118  114  116 ar 
   119  117  118 1  
   120  118  119 1  
   121  118  121 1  
   122  119  120 2  
   123  119  126 am 
   124  121  122 1  
   125  122  123 1  
   126  123  124 ar 
   127  123  125 ar 
   128  126  127 1  
   129  127  128 1  
   130  127  130 1  
   131  128  129 2  
   132  128  134 am 
   133  130  131 1  
   134  130  132 1  
   135  131  133 1  
   136  134  135 1  
   137  135  136 1  
   138  135  138 1  
   139  136  137 2  
   140  136  142 am 
   141  138  139 1  
   142  139  140 1  
   143  139  141 1  
   144  142  143 1  
   145  143  144 1  
   146  143  146 1  
   147  144  145 2  
   148  144  149 am 
   149  146  147 1  
   150  146  148 1  
   151  149  150 1  
   152  150  151 1  
   153  150  153 1  
   154  151  152 2  
   155  151  160 am 
   156  153  154 1  
   157  154  155 1  
   158  155  156 1  
   159  156  157 ar 
   160  157  158 ar 
   161  157  159 ar 
   162  160  161 1  
   163  161  162 1  
   164  161  164 1  
   165  162  163 ar 
   166  162  167 ar 
   167  164  165 1  
   168  164  166 1  
   169    1  168 1  
   170    1  169 1  
   171    1  170 1  
   172    2  171 1  
   173    5  172 1  
   174    5  173 1  
   175    6  174 1  
   176    6  175 1  
   177   10  176 1  
   178   11  177 1  
   179   14  178 1  
   180   14  179 1  
   181   18  180 1  
   182   19  181 1  
   183   20  182 1  
   184   21  183 1  
   185   21  184 1  
   186   21  185 1  
   187   29  186 1  
   188   30  187 1  
   189   33  188 1  
   190   33  189 1  
   191   37  190 1  
   192   38  191 1  
   193   41  192 1  
   194   41  193 1  
   195   42  194 1  
   196   42  195 1  
   197   46  196 1  
   198   47  197 1  
   199   50  198 1  
   200   50  199 1  
   201   54  200 1  
   202   55  201 1  
   203   58  202 1  
   204   58  203 1  
   205   62  204 1  
   206   63  205 1  
   207   66  206 1  
   208   66  207 1  
   209   69  208 1  
   210   70  209 1  
   211   71  210 1  
   212   72  211 1  
   213   73  212 1  
   214   76  213 1  
   215   76  214 1  
   216   77  215 1  
   217   78  216 1  
   218   78  217 1  
   219   78  218 1  
   220   79  219 1  
   221   79  220 1  
   222   79  221 1  
   223   80  222 1  
   224   81  223 1  
   225   84  224 1  
   226   85  225 1  
   227   85  226 1  
   228   86  227 1  
   229   86  228 1  
   230   86  229 1  
   231   87  230 1  
   232   87  231 1  
   233   87  232 1  
   234   88  233 1  
   235   89  234 1  
   236   92  235 1  
   237   92  236 1  
   238   94  237 1  
   239   95  238 1  
   240   96  239 1  
   241   97  240 1  
   242   99  241 1  
   243  100  242 1  
   244  101  243 1  
   245  104  244 1  
   246  104  245 1  
   247  105  246 1  
   248  106  247 1  
   249  106  248 1  
   250  106  249 1  
   251  107  250 1  
   252  107  251 1  
   253  107  252 1  
   254  108  253 1  
   255  109  254 1  
   256  112  255 1  
   257  112  256 1  
   258  113  257 1  
   259  113  258 1  
   260  117  259 1  
   261  118  260 1  
   262  121  261 1  
   263  121  262 1  
   264  122  263 1  
   265  122  264 1  
   266  126  265 1  
   267  127  266 1  
   268  130  267 1  
   269  131  268 1  
   270  131  269 1  
   271  132  270 1  
   272  132  271 1  
   273  132  272 1  
   274  133  273 1  
   275  133  274 1  
   276  133  275 1  
   277  134  276 1  
   278  135  277 1  
   279  138  278 1  
   280  138  279 1  
   281  139  280 1  
   282  140  281 1  
   283  140  282 1  
   284  140  283 1  
   285  141  284 1  
   286  141  285 1  
   287  141  286 1  
   288  142  287 1  
   289  143  288 1  
   290  146  289 1  
   291  147  290 1  
   292  147  291 1  
   293  147  292 1  
   294  148  293 1  
   295  148  294 1  
   296  148  295 1  
   297  149  296 1  
   298  150  297 1  
   299  153  298 1  
   300  153  299 1  
   301  154  300 1  
   302  154  301 1  
   303  155  302 1  
   304  155  303 1  
   305  156  304 1  
   306  158  305 1  
   307  158  306 1  
   308  159  307 1  
   309  159  308 1  
   310  160  309 1  
   311  161  310 1  
   312  164  311 1  
   313  165  312 1  
   314  165  313 1  
   315  165  314 1  
   316  166  315 1  
   317  166  316 1  
   318  166  317 1  
@<TRIPOS>SUBSTRUCTURE
     1 GLU         1

