### 
### Created by X-TOOL on Fri Sep 26 17:34:37 2014
### 

@<TRIPOS>MOLECULE
2p3o_ligand
   79    84     1     0     0
SMALL
GAST_HUCK


@<TRIPOS>ATOM
      1 N2         16.0310   52.7420  -11.8090 N.pl3     1 GTA        -0.3241
      2 O6         19.0260   54.1840   -8.5550 O.2       1 GTA        -0.3083
      3 C6         18.1180   53.3930   -8.9270 C.2       1 GTA         0.3490
      4 C5         17.6460   52.4000   -8.0420 C.2       1 GTA         0.3797
      5 N7         17.9500   52.0310   -6.7660 N.2       1 GTA        -0.1824
      6 C7         18.8150   52.5830   -5.7280 C.3       1 GTA         0.0325
      7 C8         17.1270   50.9870   -6.4890 C.2       1 GTA         0.2543
      8 N9         16.3130   50.7040   -7.5380 N.pl3     1 GTA        -0.0054
      9 C4         16.6300   51.5660   -8.4960 C.2       1 GTA         0.4548
     10 N3         16.1310   51.7210   -9.7350 N.pl3     1 GTA        -0.1226
     11 C2         16.5940   52.6640  -10.5740 C.cat     1 GTA         0.2388
     12 N1         17.5860   53.5040  -10.1810 N.am      1 GTA        -0.2251
     13 O3A        14.8300   46.2790   -6.9960 O.3       1 GTA        -0.3864
     14 C1A        15.2190   49.6840   -7.7060 C.3       1 GTA         0.2440
     15 C2A        15.6940   48.2600   -7.8910 C.3       1 GTA         0.1428
     16 C3A        15.3480   47.5480   -6.6190 C.3       1 GTA         0.1151
     17 C4A        14.2400   48.3680   -6.0010 C.3       1 GTA         0.1191
     18 C5A        14.4590   48.4940   -4.5070 C.3       1 GTA         0.1128
     19 O4A        14.2770   49.6630   -6.6310 O.3       1 GTA        -0.3332
     20 O2A        14.8880   47.7000   -8.9410 O.3       1 GTA        -0.3834
     21 P1         15.6540   50.3130   -2.9500 P.3       1 GTA         0.2978
     22 O11        14.4850   49.9820   -2.0540 O.co2     1 GTA        -0.6127
     23 O12        16.0750   51.7560   -3.1470 O.co2     1 GTA        -0.6127
     24 O13        16.9620   49.5010   -2.5080 O.3       1 GTA        -0.1265
     25 O15        15.4230   49.5350   -4.3430 O.3       1 GTA        -0.2476
     26 P2         16.9990   48.3850   -1.3370 P.3       1 GTA         0.3355
     27 O22        17.2280   47.0090   -1.9500 O.co2     1 GTA        -0.6079
     28 O21        15.8400   48.6910   -0.4170 O.co2     1 GTA        -0.6079
     29 O23        18.3960   48.7480   -0.5940 O.3       1 GTA        -0.1265
     30 P3         19.6800   49.4540   -1.3100 P.3       1 GTA         0.2978
     31 O32        20.8630   49.2210   -0.3880 O.co2     1 GTA        -0.6127
     32 O31        19.3400   50.8940   -1.7360 O.co2     1 GTA        -0.6127
     33 O33        19.9620   48.5430   -2.6100 O.3       1 GTA        -0.2476
     34 C5B        19.9310   49.1730   -3.8730 C.3       1 GTA         0.1128
     35 C4B        19.6430   48.0880   -4.8720 C.3       1 GTA         0.1189
     36 O4B        19.2070   48.7070   -6.0860 O.3       1 GTA        -0.3364
     37 C3B        20.9340   47.3390   -5.1540 C.3       1 GTA         0.1149
     38 O3B        20.6720   45.9290   -5.2450 O.3       1 GTA        -0.3864
     39 C2B        21.3820   47.9060   -6.4860 C.3       1 GTA         0.1385
     40 O2B        22.1210   46.9550   -7.2810 O.3       1 GTA        -0.3836
     41 C1B        20.0610   48.2920   -7.1410 C.3       1 GTA         0.2010
     42 N9C        20.2600   49.4160   -8.0610 N.pl3     1 GTA        -0.1919
     43 C8C        21.0570   50.4820   -7.8520 C.2       1 GTA         0.1123
     44 N7C        20.9890   51.2880   -8.9150 N.2       1 GTA        -0.2958
     45 C5C        20.1530   50.7030   -9.7690 C.ar      1 GTA         0.1045
     46 C6C        19.7540   51.1540  -11.0150 C.ar      1 GTA         0.1298
     47 N6C        20.2010   52.2360  -11.4400 N.pl3     1 GTA        -0.3152
     48 N1C        18.8950   50.4040  -11.7300 N.ar      1 GTA        -0.2698
     49 C2C        18.4360   49.2430  -11.2130 C.ar      1 GTA         0.0533
     50 N3C        18.8090   48.7850   -9.9800 N.ar      1 GTA        -0.2714
     51 C4C        19.6840   49.5210   -9.2500 C.ar      1 GTA         0.1613
     52 H1         15.2802   52.0889  -12.0749 H         1 GTA         0.1814
     53 H2         16.3553   53.4542  -12.4788 H         1 GTA         0.1814
     54 H3         18.7591   51.9507   -4.8296 H         1 GTA         0.0418
     55 H4         18.4853   53.6026   -5.4798 H         1 GTA         0.0418
     56 H5         19.8526   52.6116   -6.0922 H         1 GTA         0.0418
     57 H6         17.1207   50.4451   -5.5444 H         1 GTA         0.2503
     58 H7         15.3725   51.0996  -10.0503 H         1 GTA         0.2948
     59 H8         17.9271   54.2035  -10.8089 H         1 GTA         0.1848
     60 H9         14.0594   46.4011   -7.5381 H         1 GTA         0.2100
     61 H10        14.6759   49.9703   -8.6187 H         1 GTA         0.1043
     62 H11        16.7684   48.2017   -8.1198 H         1 GTA         0.0678
     63 H12        16.2113   47.4495   -5.9444 H         1 GTA         0.0648
     64 H13        13.2675   47.8886   -6.1866 H         1 GTA         0.0651
     65 H14        14.8417   47.5488   -4.0946 H         1 GTA         0.0648
     66 H15        13.5183   48.7599   -4.0027 H         1 GTA         0.0648
     67 H16        15.0743   46.7718   -9.0209 H         1 GTA         0.2101
     68 H17        20.9016   49.6433   -4.0892 H         1 GTA         0.0648
     69 H18        19.1396   49.9365   -3.8997 H         1 GTA         0.0648
     70 H19        18.8738   47.4018   -4.4882 H         1 GTA         0.0651
     71 H20        21.6849   47.5273   -4.3725 H         1 GTA         0.0648
     72 H21        21.4837   45.4680   -5.4214 H         1 GTA         0.2100
     73 H22        22.0107   48.7953   -6.3314 H         1 GTA         0.0676
     74 H23        21.5741   46.1984   -7.4571 H         1 GTA         0.2101
     75 H24        19.6309   47.4351   -7.6801 H         1 GTA         0.0996
     76 H25        21.6586   50.6579   -6.9615 H         1 GTA         0.1349
     77 H26        19.9129   52.5843  -12.3655 H         1 GTA         0.1820
     78 H27        20.8587   52.7826  -10.8659 H         1 GTA         0.1820
     79 H28        17.7436   48.6504  -11.8000 H         1 GTA         0.0996
@<TRIPOS>BOND
     1   11    1 ar 
     2    3    2 2  
     3    4    3 1  
     4    3   12 am 
     5    4    5 1  
     6    9    4 2  
     7    5    6 1  
     8    7    5 2  
     9    8    7 1  
    10    8    9 1  
    11   14    8 1  
    12    9   10 1  
    13   10   11 ar 
    14   11   12 ar 
    15   16   13 1  
    16   14   15 1  
    17   19   14 1  
    18   16   15 1  
    19   15   20 1  
    20   17   16 1  
    21   18   17 1  
    22   17   19 1  
    23   25   18 1  
    24   21   22 ar 
    25   21   23 ar 
    26   21   24 1  
    27   21   25 1  
    28   24   26 1  
    29   26   27 ar 
    30   26   28 ar 
    31   26   29 1  
    32   29   30 1  
    33   30   31 ar 
    34   30   32 ar 
    35   30   33 1  
    36   33   34 1  
    37   34   35 1  
    38   35   36 1  
    39   35   37 1  
    40   36   41 1  
    41   37   38 1  
    42   37   39 1  
    43   39   40 1  
    44   39   41 1  
    45   41   42 1  
    46   42   43 1  
    47   42   51 1  
    48   43   44 2  
    49   44   45 1  
    50   45   46 ar 
    51   45   51 ar 
    52   46   47 1  
    53   46   48 ar 
    54   48   49 ar 
    55   49   50 ar 
    56   50   51 ar 
    57    1   52 1  
    58    1   53 1  
    59    6   54 1  
    60    6   55 1  
    61    6   56 1  
    62    7   57 1  
    63   10   58 1  
    64   12   59 1  
    65   13   60 1  
    66   14   61 1  
    67   15   62 1  
    68   16   63 1  
    69   17   64 1  
    70   18   65 1  
    71   18   66 1  
    72   20   67 1  
    73   34   68 1  
    74   34   69 1  
    75   35   70 1  
    76   37   71 1  
    77   38   72 1  
    78   39   73 1  
    79   40   74 1  
    80   41   75 1  
    81   43   76 1  
    82   47   77 1  
    83   47   78 1  
    84   49   79 1  
@<TRIPOS>SUBSTRUCTURE
     1 GTA         1

