### 
### Created by X-TOOL on Fri Sep 26 17:34:37 2014
### 

@<TRIPOS>MOLECULE
2qm7_ligand
   41    43     1     0     0
SMALL
GAST_HUCK


@<TRIPOS>ATOM
      1 PB          5.6170  -18.5780   40.6160 P.3       1 GDP         0.2069
      2 O1B         6.9360  -18.5810   39.9100 O.co2     1 GDP        -0.5891
      3 O2B         4.9990  -17.2430   40.6770 O.co2     1 GDP        -0.5891
      4 O3B         5.7700  -19.1080   42.0300 O.co2     1 GDP        -0.5891
      5 O3A         4.5550  -19.5310   39.8650 O.3       1 GDP        -0.1548
      6 PA          4.7400  -20.7670   38.9050 P.3       1 GDP         0.3276
      7 O1A         5.1380  -20.4150   37.5050 O.co2     1 GDP        -0.5556
      8 O2A         5.6320  -21.8390   39.4980 O.co2     1 GDP        -0.5556
      9 O5'         3.2330  -21.2850   38.8640 O.3       1 GDP        -0.2436
     10 C5'         2.5040  -21.5590   40.0660 C.3       1 GDP         0.1132
     11 C4'         1.3730  -22.4960   39.6820 C.3       1 GDP         0.1190
     12 O4'         0.3820  -21.7720   38.9210 O.3       1 GDP        -0.3347
     13 C3'         1.8280  -23.6720   38.8310 C.3       1 GDP         0.1151
     14 O3'         1.0340  -24.8220   39.1280 O.3       1 GDP        -0.3864
     15 C2'         1.5000  -23.2380   37.4190 C.3       1 GDP         0.1407
     16 O2'         1.1880  -24.2510   36.4770 O.3       1 GDP        -0.3835
     17 C1'         0.2490  -22.3950   37.6330 C.3       1 GDP         0.2218
     18 N9          0.1530  -21.4110   36.5290 N.pl3     1 GDP        -0.0954
     19 C8          1.0900  -20.5610   36.0180 C.2       1 GDP         0.1855
     20 N7          0.5470  -19.8250   35.0040 N.2       1 GDP        -0.1929
     21 C5         -0.7330  -20.2040   34.8780 C.2       1 GDP         0.2558
     22 C6         -1.8880  -19.8590   34.0230 C.2       1 GDP         0.2628
     23 O6         -1.7290  -18.9930   33.1400 O.2       1 GDP        -0.3594
     24 N1         -3.0580  -20.5240   34.1990 N.am      1 GDP        -0.2478
     25 C2         -3.2350  -21.4500   35.1520 C.cat     1 GDP         0.2041
     26 N2         -4.4340  -22.0730   35.3010 N.pl3     1 GDP        -0.3327
     27 N3         -2.2330  -21.8140   35.9850 N.pl3     1 GDP        -0.1901
     28 C4         -0.9950  -21.2220   35.8850 C.2       1 GDP         0.3268
     29 H1          2.0986  -20.6263   40.4852 H         1 GDP         0.0648
     30 H2          3.1600  -22.0393   40.8069 H         1 GDP         0.0648
     31 H3          0.9166  -22.8832   40.6049 H         1 GDP         0.0651
     32 H4          2.8988  -23.8852   38.9648 H         1 GDP         0.0648
     33 H5          1.3235  -25.5520   38.5933 H         1 GDP         0.2100
     34 H6          2.3287  -22.6358   37.0183 H         1 GDP         0.0677
     35 H7          0.4264  -24.7347   36.7744 H         1 GDP         0.2101
     36 H8         -0.6470  -23.0330   37.6259 H         1 GDP         0.1021
     37 H9          2.1185  -20.4813   36.3671 H         1 GDP         0.1823
     38 H10        -3.8228  -20.3136   33.5901 H         1 GDP         0.1819
     39 H11        -4.5576  -22.7828   36.0370 H         1 GDP         0.1774
     40 H12        -5.2189  -21.8352   34.6779 H         1 GDP         0.1774
     41 H13        -2.3979  -22.5386   36.6982 H         1 GDP         0.2519
@<TRIPOS>BOND
     1    1    2 ar 
     2    1    3 ar 
     3    1    4 ar 
     4    1    5 1  
     5    5    6 1  
     6    6    7 ar 
     7    6    8 ar 
     8    6    9 1  
     9    9   10 1  
    10   10   11 1  
    11   11   12 1  
    12   11   13 1  
    13   12   17 1  
    14   13   14 1  
    15   13   15 1  
    16   15   16 1  
    17   15   17 1  
    18   17   18 1  
    19   18   19 1  
    20   18   28 1  
    21   19   20 2  
    22   20   21 1  
    23   21   22 1  
    24   21   28 2  
    25   22   23 2  
    26   22   24 am 
    27   24   25 ar 
    28   25   26 ar 
    29   25   27 ar 
    30   27   28 1  
    31   10   29 1  
    32   10   30 1  
    33   11   31 1  
    34   13   32 1  
    35   14   33 1  
    36   15   34 1  
    37   16   35 1  
    38   17   36 1  
    39   19   37 1  
    40   24   38 1  
    41   26   39 1  
    42   26   40 1  
    43   27   41 1  
@<TRIPOS>SUBSTRUCTURE
     1 GDP         1

