### 
### Created by X-TOOL on Fri Sep 26 17:34:42 2014
### 

@<TRIPOS>MOLECULE
2r1w_ligand
   25    25     1     0     0
SMALL
GAST_HUCK


@<TRIPOS>ATOM
      1 O2         -6.0950    4.1660   69.8100 O.3       1 KDB        -0.4221
      2 C2         -5.9760    4.6170   71.2750 C.3       1 KDB         0.1756
      3 C1         -5.5400    6.1030   71.2820 C.2       1 KDB         0.0462
      4 O1B        -4.5990    6.4020   70.5410 O.co2     1 KDB        -0.5651
      5 O1A        -6.1400    6.9060   72.0540 O.co2     1 KDB        -0.5651
      6 C3         -4.9770    3.8480   71.9310 C.2       1 KDB        -0.0256
      7 C4         -5.2610    3.0090   73.0320 C.2       1 KDB        -0.0084
      8 C5         -6.5850    2.7440   73.4610 C.3       1 KDB         0.0514
      9 C6         -7.6630    3.1800   72.4220 C.3       1 KDB         0.0994
     10 O6         -7.2700    4.4890   71.9400 O.3       1 KDB        -0.3958
     11 C7         -9.1120    3.2570   72.9260 C.3       1 KDB         0.1076
     12 O7         -9.2010    4.2430   73.9610 O.3       1 KDB        -0.3866
     13 C8         -9.6440    1.9260   73.4840 C.3       1 KDB         0.0729
     14 O8         -9.3650    0.8310   72.6020 O.3       1 KDB        -0.3924
     15 H1         -5.2503    4.2518   69.3838 H         1 KDB         0.1901
     16 H2         -3.9511    3.9077   71.5706 H         1 KDB         0.0527
     17 H3         -4.4328    2.5498   73.5698 H         1 KDB         0.1535
     18 H4         -6.7641    3.2875   74.4004 H         1 KDB         0.0720
     19 H5         -6.6861    1.6630   73.6378 H         1 KDB         0.0720
     20 H6         -7.6403    2.4607   71.5901 H         1 KDB         0.0667
     21 H7         -9.7514    3.5585   72.0832 H         1 KDB         0.0646
     22 H8         -8.9385    5.0880   73.6152 H         1 KDB         0.2100
     23 H9        -10.7327    2.0061   73.6192 H         1 KDB         0.0584
     24 H10        -9.1671    1.7310   74.4559 H         1 KDB         0.0584
     25 H11        -9.7068    0.0282   72.9777 H         1 KDB         0.2095
@<TRIPOS>BOND
     1    1    2 1  
     2    2    3 1  
     3    2    6 1  
     4    2   10 1  
     5    3    4 ar 
     6    3    5 ar 
     7    6    7 2  
     8    7    8 1  
     9    8    9 1  
    10    9   10 1  
    11    9   11 1  
    12   11   12 1  
    13   11   13 1  
    14   13   14 1  
    15    1   15 1  
    16    6   16 1  
    17    7   17 1  
    18    8   18 1  
    19    8   19 1  
    20    9   20 1  
    21   11   21 1  
    22   12   22 1  
    23   13   23 1  
    24   13   24 1  
    25   14   25 1  
@<TRIPOS>SUBSTRUCTURE
     1 KDB         1

