### 
### Created by X-TOOL on Fri Sep 26 17:34:38 2014
### 

@<TRIPOS>MOLECULE
2v0n_ligand
   70    76     1     0     0
SMALL
GAST_HUCK


@<TRIPOS>ATOM
      1 P          76.9100   63.9880   70.3130 P.3       1 MOL         0.2557
      2 O1P        76.9010   62.5230   70.6000 O.co2     1 MOL        -0.6177
      3 O2P        76.6540   64.8850   71.4970 O.co2     1 MOL        -0.6177
      4 O5'        78.3650   64.4790   69.8580 O.3       1 MOL        -0.2514
      5 C5'        78.6450   65.5900   68.9930 C.3       1 MOL         0.1128
      6 C4'        79.7110   64.9470   68.1420 C.3       1 MOL         0.1243
      7 O4'        81.0290   65.3080   68.5460 O.3       1 MOL        -0.3343
      8 C3'        79.6630   64.9200   66.6080 C.3       1 MOL         0.1541
      9 O3'        78.8420   65.9170   65.9820 O.3       1 MOL        -0.2453
     10 C2'        81.1500   64.9680   66.2760 C.3       1 MOL         0.1461
     11 O2'        81.5480   66.2640   65.8560 O.3       1 MOL        -0.3831
     12 C1'        81.8670   64.6640   67.5830 C.3       1 MOL         0.2222
     13 N9         81.9860   63.1890   67.8010 N.pl3     1 MOL        -0.0954
     14 C8         81.3600   62.4520   68.7520 C.2       1 MOL         0.1855
     15 N7         81.6930   61.1550   68.6480 N.2       1 MOL        -0.1929
     16 C5         82.5620   61.0730   67.6270 C.2       1 MOL         0.2558
     17 C6         83.2430   59.9990   67.0890 C.2       1 MOL         0.2628
     18 O6         83.1270   58.8430   67.5550 O.2       1 MOL        -0.3594
     19 N1         84.0360   60.2120   66.0540 N.am      1 MOL        -0.2478
     20 C2         84.1980   61.4270   65.5530 C.cat     1 MOL         0.2041
     21 N2         85.0320   61.5330   64.5110 N.pl3     1 MOL        -0.3327
     22 N3         83.5660   62.5110   66.0520 N.pl3     1 MOL        -0.1901
     23 C4         82.7380   62.3460   67.0950 C.2       1 MOL         0.3268
     24 P          78.0470   65.2590   64.7380 P.3       1 MOL         0.2557
     25 O1P        79.0000   64.3730   63.9590 O.co2     1 MOL        -0.6177
     26 O2P        77.2440   66.3470   64.0260 O.co2     1 MOL        -0.6177
     27 O5'        76.8850   64.3300   65.3010 O.3       1 MOL        -0.2514
     28 C5'        75.9060   65.0160   66.0720 C.3       1 MOL         0.1128
     29 C4'        75.0920   64.0580   66.9180 C.3       1 MOL         0.1243
     30 O4'        74.3960   63.0720   66.1410 O.3       1 MOL        -0.3343
     31 C3'        75.8020   63.3900   68.1050 C.3       1 MOL         0.1541
     32 O3'        75.8050   64.3480   69.1750 O.3       1 MOL        -0.2453
     33 C2'        74.8830   62.1840   68.2610 C.3       1 MOL         0.1461
     34 O2'        73.7770   62.5530   69.0500 O.3       1 MOL        -0.3831
     35 C1'        74.3330   61.8600   66.8920 C.3       1 MOL         0.2222
     36 N9         75.1650   60.8890   66.1700 N.pl3     1 MOL        -0.0954
     37 C8         76.1560   61.1790   65.3130 C.2       1 MOL         0.1855
     38 N7         76.6740   60.0350   64.8230 N.2       1 MOL        -0.1929
     39 C5         75.9860   59.0100   65.3770 C.2       1 MOL         0.2558
     40 C6         76.0470   57.6120   65.2690 C.2       1 MOL         0.2628
     41 O6         76.8630   56.9910   64.5410 O.2       1 MOL        -0.3594
     42 N1         75.2060   56.8850   65.9810 N.am      1 MOL        -0.2478
     43 C2         74.3240   57.4440   66.7730 C.cat     1 MOL         0.2041
     44 N2         73.5040   56.6520   67.4480 N.pl3     1 MOL        -0.3327
     45 N3         74.2200   58.7670   66.9160 N.pl3     1 MOL        -0.1901
     46 C4         75.0450   59.5720   66.2260 C.2       1 MOL         0.3268
     47 H1         79.0260   66.4608   69.5467 H         1 MOL         0.0647
     48 H2         77.7661   65.8871   68.4020 H         1 MOL         0.0647
     49 H3         79.6111   63.8848   68.4097 H         1 MOL         0.0655
     50 H4         79.2584   63.9501   66.2831 H         1 MOL         0.0712
     51 H5         81.3973   64.2268   65.5018 H         1 MOL         0.0681
     52 H6         82.4769   66.2610   65.6571 H         1 MOL         0.2102
     53 H7         82.8742   65.1061   67.5912 H         1 MOL         0.1022
     54 H8         80.6792   62.8572   69.4991 H         1 MOL         0.1823
     55 H9         84.5226   59.4419   65.6415 H         1 MOL         0.1819
     56 H10        85.1997   62.4519   64.0770 H         1 MOL         0.1774
     57 H11        85.5059   60.6956   64.1434 H         1 MOL         0.1774
     58 H12        83.7161   63.4436   65.6413 H         1 MOL         0.2519
     59 H13        75.2298   65.5553   65.3925 H         1 MOL         0.0647
     60 H14        76.4116   65.7351   66.7332 H         1 MOL         0.0647
     61 H15        74.3121   64.6877   67.3710 H         1 MOL         0.0655
     62 H16        76.8334   63.0798   67.8817 H         1 MOL         0.0712
     63 H17        75.4199   61.3288   68.6972 H         1 MOL         0.0681
     64 H18        73.1982   61.8067   69.1526 H         1 MOL         0.2102
     65 H19        73.3006   61.4896   66.9746 H         1 MOL         0.1022
     66 H20        76.4899   62.1826   65.0536 H         1 MOL         0.1823
     67 H21        75.2427   55.8879   65.9147 H         1 MOL         0.1819
     68 H22        72.7989   57.0585   68.0793 H         1 MOL         0.1774
     69 H23        73.5716   55.6297   67.3415 H         1 MOL         0.1774
     70 H24        73.5135   59.1672   67.5497 H         1 MOL         0.2519
@<TRIPOS>BOND
     1    1    2 ar 
     2    1    3 ar 
     3    1    4 1  
     4    1   32 1  
     5    4    5 1  
     6    5    6 1  
     7    6    7 1  
     8    6    8 1  
     9    7   12 1  
    10    8    9 1  
    11    8   10 1  
    12    9   24 1  
    13   10   11 1  
    14   10   12 1  
    15   12   13 1  
    16   13   14 1  
    17   13   23 1  
    18   14   15 2  
    19   15   16 1  
    20   16   17 1  
    21   16   23 2  
    22   17   18 2  
    23   17   19 am 
    24   19   20 ar 
    25   20   21 ar 
    26   20   22 ar 
    27   22   23 1  
    28   24   25 ar 
    29   24   26 ar 
    30   24   27 1  
    31   27   28 1  
    32   28   29 1  
    33   29   30 1  
    34   29   31 1  
    35   30   35 1  
    36   31   32 1  
    37   31   33 1  
    38   33   34 1  
    39   33   35 1  
    40   35   36 1  
    41   36   37 1  
    42   36   46 1  
    43   37   38 2  
    44   38   39 1  
    45   39   40 1  
    46   39   46 2  
    47   40   41 2  
    48   40   42 am 
    49   42   43 ar 
    50   43   44 ar 
    51   43   45 ar 
    52   45   46 1  
    53    5   47 1  
    54    5   48 1  
    55    6   49 1  
    56    8   50 1  
    57   10   51 1  
    58   11   52 1  
    59   12   53 1  
    60   14   54 1  
    61   19   55 1  
    62   21   56 1  
    63   21   57 1  
    64   22   58 1  
    65   28   59 1  
    66   28   60 1  
    67   29   61 1  
    68   31   62 1  
    69   33   63 1  
    70   34   64 1  
    71   35   65 1  
    72   37   66 1  
    73   42   67 1  
    74   44   68 1  
    75   44   69 1  
    76   45   70 1  
@<TRIPOS>SUBSTRUCTURE
     1 MOL         1

