### 
### Created by X-TOOL on Fri Sep 26 17:34:48 2014
### 

@<TRIPOS>MOLECULE
2wib_ligand
   41    43     1     0     0
SMALL
GAST_HUCK


@<TRIPOS>ATOM
      1 PB         18.0860   36.7840   24.1840 P.3       1 GDP         0.2069
      2 O1B        16.6710   36.2760   24.3100 O.co2     1 GDP        -0.5891
      3 O2B        19.0520   36.1660   23.4010 O.co2     1 GDP        -0.5891
      4 O3B        18.7950   36.6610   25.6610 O.co2     1 GDP        -0.5891
      5 O3A        18.1930   38.2210   23.5360 O.3       1 GDP        -0.1548
      6 PA         16.8310   39.1450   23.4980 P.3       1 GDP         0.3276
      7 O1A        15.6470   38.7140   22.6230 O.co2     1 GDP        -0.5556
      8 O2A        16.4410   39.3640   25.0690 O.co2     1 GDP        -0.5556
      9 O5'        17.2800   40.5940   22.9490 O.3       1 GDP        -0.2436
     10 C5'        18.6090   41.0420   23.1870 C.3       1 GDP         0.1132
     11 C4'        18.6320   42.6120   22.9490 C.3       1 GDP         0.1190
     12 O4'        18.7630   42.6020   21.4960 O.3       1 GDP        -0.3347
     13 C3'        17.2270   43.1230   23.2760 C.3       1 GDP         0.1151
     14 O3'        17.2920   44.5000   23.6890 O.3       1 GDP        -0.3864
     15 C2'        16.5480   43.0810   21.9710 C.3       1 GDP         0.1407
     16 O2'        15.6950   44.2020   21.9130 O.3       1 GDP        -0.3835
     17 C1'        17.6270   43.2970   20.9760 C.3       1 GDP         0.2218
     18 N9         17.4570   42.7070   19.6970 N.pl3     1 GDP        -0.0954
     19 C8         16.9540   41.5060   19.3530 C.2       1 GDP         0.1855
     20 N7         17.0600   41.4070   17.9400 N.2       1 GDP        -0.1929
     21 C5         17.5730   42.5030   17.4060 C.2       1 GDP         0.2558
     22 C6         17.8640   42.9250   16.0750 C.2       1 GDP         0.2628
     23 O6         17.6360   42.2090   15.0530 O.2       1 GDP        -0.3594
     24 N1         18.5310   44.2080   15.9590 N.am      1 GDP        -0.2478
     25 C2         18.7620   45.0130   17.1000 C.cat     1 GDP         0.2041
     26 N2         19.2790   46.2570   17.0290 N.pl3     1 GDP        -0.3327
     27 N3         18.4110   44.5180   18.3200 N.pl3     1 GDP        -0.1901
     28 C4         17.8460   43.3210   18.5210 C.2       1 GDP         0.3268
     29 H          19.3061   40.5437   22.5133 H         1 GDP         0.0648
     30 H          18.9145   40.8060   24.2064 H         1 GDP         0.0648
     31 H          19.3704   43.1916   23.5031 H         1 GDP         0.0651
     32 H          16.7410   42.5473   24.0637 H         1 GDP         0.0648
     33 H          16.4079   44.8140   23.8924 H         1 GDP         0.2100
     34 H          15.9923   42.1582   21.8045 H         1 GDP         0.0677
     35 H          16.2158   45.0038   21.9990 H         1 GDP         0.2101
     36 H          17.6812   44.3770   20.8390 H         1 GDP         0.1021
     37 H          16.5446   40.7549   20.0285 H         1 GDP         0.1823
     38 H          18.8377   44.5344   15.0426 H         1 GDP         0.1819
     39 H          19.5224   46.6572   16.1229 H         1 GDP         0.1774
     40 H          19.4265   46.7974   17.8814 H         1 GDP         0.1774
     41 H          18.5914   45.1004   19.1377 H         1 GDP         0.2519
@<TRIPOS>BOND
     1    1    2 ar 
     2    1    3 ar 
     3    1    4 ar 
     4    1    5 1  
     5    5    6 1  
     6    6    7 ar 
     7    6    8 ar 
     8    6    9 1  
     9    9   10 1  
    10   10   11 1  
    11   11   12 1  
    12   11   13 1  
    13   12   17 1  
    14   13   14 1  
    15   13   15 1  
    16   15   16 1  
    17   15   17 1  
    18   17   18 1  
    19   18   19 1  
    20   18   28 1  
    21   19   20 2  
    22   20   21 1  
    23   21   22 1  
    24   21   28 2  
    25   22   23 2  
    26   22   24 am 
    27   24   25 ar 
    28   25   26 ar 
    29   25   27 ar 
    30   27   28 1  
    31   10   29 1  
    32   10   30 1  
    33   11   31 1  
    34   13   32 1  
    35   14   33 1  
    36   15   34 1  
    37   16   35 1  
    38   17   36 1  
    39   19   37 1  
    40   24   38 1  
    41   26   39 1  
    42   26   40 1  
    43   27   41 1  
@<TRIPOS>SUBSTRUCTURE
     1 GDP         1

