### 
### Created by X-TOOL on Fri Sep 26 17:34:44 2014
### 

@<TRIPOS>MOLECULE
2wig_ligand
   16    15     1     0     0
SMALL
GAST_HUCK


@<TRIPOS>ATOM
      1 C2        -13.6750  -39.2870  -22.0980 C.3       1 TC3        -0.0423
      2 C1        -14.5730  -38.3130  -21.3340 C.3       1 TC3         0.0278
      3 O3        -14.8370  -37.3240  -22.2590 O.3       1 TC3        -0.4532
      4 P         -16.2640  -36.8230  -22.7160 P.3       1 TC3        -0.1271
      5 O2        -16.2080  -36.6600  -24.1580 O.co2     1 TC3        -0.8757
      6 N         -17.3730  -37.7900  -22.0180 N.am      1 TC3        -0.4357
      7 C3        -17.8450  -38.9640  -22.8070 C.3       1 TC3        -0.0220
      8 H         -14.2099  -39.6654  -22.9690 H         1 TC3         0.0252
      9 H         -12.7719  -38.7693  -22.4213 H         1 TC3         0.0252
     10 H         -13.4053  -40.1181  -21.4463 H         1 TC3         0.0252
     11 H         -14.0973  -37.9257  -20.4330 H         1 TC3         0.0552
     12 H         -15.4801  -38.7875  -20.9597 H         1 TC3         0.0552
     13 H         -17.7295  -37.6007  -21.0812 H         1 TC3         0.1200
     14 H         -18.3016  -38.6173  -23.7340 H         1 TC3         0.0408
     15 H         -16.9976  -39.6098  -23.0372 H         1 TC3         0.0408
     16 H         -18.5795  -39.5201  -22.2245 H         1 TC3         0.0408
@<TRIPOS>BOND
     1    1    2 1  
     2    2    3 1  
     3    3    4 1  
     4    4    5 ar 
     5    4    6 am 
     6    6    7 1  
     7    1    8 1  
     8    1    9 1  
     9    1   10 1  
    10    2   11 1  
    11    2   12 1  
    12    6   13 1  
    13    7   14 1  
    14    7   15 1  
    15    7   16 1  
@<TRIPOS>SUBSTRUCTURE
     1 TC3         1

