### 
### Created by X-TOOL on Fri Sep 26 17:34:44 2014
### 

@<TRIPOS>MOLECULE
2wij_ligand
   19    18     1     0     0
SMALL
GAST_HUCK


@<TRIPOS>ATOM
      1 C2        -17.5180  -39.8820  -22.7350 C.3       1 TN7        -0.0423
      2 C1        -18.0810  -38.4960  -23.0450 C.3       1 TN7         0.0278
      3 O3        -17.4360  -37.5150  -22.2050 O.3       1 TN7        -0.4532
      4 P         -16.1870  -36.7830  -22.7040 P.3       1 TN7        -0.1269
      5 O2        -16.0600  -36.6210  -24.1610 O.co2     1 TN7        -0.8757
      6 N         -14.7810  -37.5210  -21.8550 N.am      1 TN7        -0.4334
      7 C3        -14.8320  -38.9550  -21.9920 C.3       1 TN7        -0.0127
      8 C4        -13.4350  -39.5390  -22.1350 C.3       1 TN7        -0.0512
      9 H         -16.4450  -39.8881  -22.9267 H         1 TN7         0.0252
     10 H         -17.7027  -40.1219  -21.6879 H         1 TN7         0.0252
     11 H         -18.0060  -40.6214  -23.3700 H         1 TN7         0.0252
     12 H         -19.1540  -38.4888  -22.8535 H         1 TN7         0.0552
     13 H         -17.8967  -38.2551  -24.0919 H         1 TN7         0.0552
     14 H         -14.0589  -37.0035  -21.3538 H         1 TN7         0.1201
     15 H         -15.4068  -39.2007  -22.8849 H         1 TN7         0.0442
     16 H         -15.2970  -39.3751  -21.1002 H         1 TN7         0.0442
     17 H         -12.9561  -39.1196  -23.0198 H         1 TN7         0.0244
     18 H         -12.8473  -39.2924  -21.2508 H         1 TN7         0.0244
     19 H         -13.5040  -40.6221  -22.2366 H         1 TN7         0.0244
@<TRIPOS>BOND
     1    1    2 1  
     2    2    3 1  
     3    3    4 1  
     4    4    5 ar 
     5    4    6 am 
     6    6    7 1  
     7    7    8 1  
     8    1    9 1  
     9    1   10 1  
    10    1   11 1  
    11    2   12 1  
    12    2   13 1  
    13    6   14 1  
    14    7   15 1  
    15    7   16 1  
    16    8   17 1  
    17    8   18 1  
    18    8   19 1  
@<TRIPOS>SUBSTRUCTURE
     1 TN7         1

