### 
### Created by X-TOOL on Fri Sep 26 17:34:51 2014
### 

@<TRIPOS>MOLECULE
2y4l_ligand
   41    43     1     0     0
SMALL
GAST_HUCK


@<TRIPOS>ATOM
      1 PB         92.5460  -22.3780  111.5800 P.3       1 GDP         0.2069
      2 O1B        92.2230  -23.3290  110.4540 O.co2     1 GDP        -0.5891
      3 O2B        91.3140  -22.1090  112.3990 O.co2     1 GDP        -0.5891
      4 O3B        92.9680  -21.0580  110.9530 O.co2     1 GDP        -0.5891
      5 O3A        93.7400  -22.9840  112.4600 O.3       1 GDP        -0.1548
      6 PA         95.2030  -23.3720  111.8680 P.3       1 GDP         0.3276
      7 O1A        95.2790  -24.5740  110.9450 O.co2     1 GDP        -0.5556
      8 O2A        95.8970  -22.2580  111.1470 O.co2     1 GDP        -0.5556
      9 O5'        95.8820  -23.6170  113.3130 O.3       1 GDP        -0.2436
     10 C5'        95.5260  -22.7750  114.4000 C.3       1 GDP         0.1132
     11 C4'        96.7780  -22.6090  115.2340 C.3       1 GDP         0.1190
     12 O4'        97.1010  -23.8510  115.8380 O.3       1 GDP        -0.3347
     13 C3'        97.9780  -22.3460  114.3770 C.3       1 GDP         0.1151
     14 O3'        98.8290  -21.5800  115.2330 O.3       1 GDP        -0.3864
     15 C2'        98.5230  -23.7330  114.0640 C.3       1 GDP         0.1407
     16 O2'        99.9040  -23.7210  113.8430 O.3       1 GDP        -0.3835
     17 C1'        98.3540  -24.3730  115.3840 C.3       1 GDP         0.2218
     18 N9         98.2520  -25.8400  115.3750 N.pl3     1 GDP        -0.0954
     19 C8         97.4050  -26.6170  114.6530 C.2       1 GDP         0.1855
     20 N7         97.5490  -27.9340  114.9670 N.2       1 GDP        -0.1929
     21 C5         98.5170  -27.9790  115.9200 C.2       1 GDP         0.2558
     22 C6         99.1920  -29.0310  116.7140 C.2       1 GDP         0.2628
     23 O6         98.8570  -30.2080  116.5380 O.2       1 GDP        -0.3594
     24 N1        100.1300  -28.6950  117.6150 N.am      1 GDP        -0.2478
     25 C2        100.4760  -27.4070  117.8150 C.cat     1 GDP         0.2041
     26 N2        101.4170  -27.1250  118.7300 N.pl3     1 GDP        -0.3327
     27 N3         99.9140  -26.3860  117.1340 N.pl3     1 GDP        -0.1901
     28 C4         98.9570  -26.6080  116.1990 C.2       1 GDP         0.3268
     29 H          94.7182  -23.2119  114.9870 H         1 GDP         0.0648
     30 H          95.1589  -21.8114  114.0465 H         1 GDP         0.0648
     31 H          96.5759  -21.7974  115.9329 H         1 GDP         0.0651
     32 H          97.8302  -21.8110  113.4389 H         1 GDP         0.0648
     33 H          99.6375  -21.3597  114.7646 H         1 GDP         0.2100
     34 H          98.0464  -24.1827  113.1929 H         1 GDP         0.0677
     35 H         100.3498  -23.3952  114.6283 H         1 GDP         0.2101
     36 H          99.2294  -24.1627  115.9985 H         1 GDP         0.1021
     37 H          96.6991  -26.2351  113.9154 H         1 GDP         0.1823
     38 H         100.5886  -29.4270  118.1574 H         1 GDP         0.1819
     39 H         101.8561  -27.8785  119.2589 H         1 GDP         0.1774
     40 H         101.6929  -26.1572  118.8963 H         1 GDP         0.1774
     41 H         100.2145  -25.4304  117.3260 H         1 GDP         0.2519
@<TRIPOS>BOND
     1    1    2 ar 
     2    1    3 ar 
     3    1    4 ar 
     4    1    5 1  
     5    5    6 1  
     6    6    7 ar 
     7    6    8 ar 
     8    6    9 1  
     9    9   10 1  
    10   10   11 1  
    11   11   12 1  
    12   11   13 1  
    13   12   17 1  
    14   13   14 1  
    15   13   15 1  
    16   15   16 1  
    17   15   17 1  
    18   17   18 1  
    19   18   19 1  
    20   18   28 1  
    21   19   20 2  
    22   20   21 1  
    23   21   22 1  
    24   21   28 2  
    25   22   23 2  
    26   22   24 am 
    27   24   25 ar 
    28   25   26 ar 
    29   25   27 ar 
    30   27   28 1  
    31   10   29 1  
    32   10   30 1  
    33   11   31 1  
    34   13   32 1  
    35   14   33 1  
    36   15   34 1  
    37   16   35 1  
    38   17   36 1  
    39   19   37 1  
    40   24   38 1  
    41   26   39 1  
    42   26   40 1  
    43   27   41 1  
@<TRIPOS>SUBSTRUCTURE
     1 GDP         1

