### 
### Created by X-TOOL on Fri Sep 26 17:34:44 2014
### 

@<TRIPOS>MOLECULE
3a1t_ligand
   41    43     1     0     0
SMALL
GAST_HUCK


@<TRIPOS>ATOM
      1 PB         25.7160   16.3590   24.6280 P.3       1 GDP         0.2069
      2 O1B        24.5450   16.4820   25.5690 O.co2     1 GDP        -0.5891
      3 O2B        26.6170   15.2300   25.0920 O.co2     1 GDP        -0.5891
      4 O3B        25.2170   16.0310   23.2480 O.co2     1 GDP        -0.5891
      5 O3A        26.6050   17.6940   24.4460 O.3       1 GDP        -0.1548
      6 PA         26.8560   18.8990   25.5000 P.3       1 GDP         0.3276
      7 O1A        27.1630   18.4160   26.8970 O.co2     1 GDP        -0.5556
      8 O2A        25.6600   19.8460   25.4870 O.co2     1 GDP        -0.5556
      9 O5'        28.0990   19.5780   24.7850 O.3       1 GDP        -0.2436
     10 C5'        29.3090   18.8420   24.5970 C.3       1 GDP         0.1132
     11 C4'        30.4710   19.8120   24.4950 C.3       1 GDP         0.1190
     12 O4'        30.2960   20.7010   23.3870 O.3       1 GDP        -0.3347
     13 C3'        30.5430   20.6730   25.7340 C.3       1 GDP         0.1151
     14 O3'        31.9230   20.8670   26.0100 O.3       1 GDP        -0.3864
     15 C2'        29.9950   22.0170   25.3110 C.3       1 GDP         0.1407
     16 O2'        30.6740   23.0570   26.0080 O.3       1 GDP        -0.3835
     17 C1'        30.3090   22.0690   23.8310 C.3       1 GDP         0.2218
     18 N9         29.2680   22.7970   23.0580 N.pl3     1 GDP        -0.0954
     19 C8         27.9370   22.5800   23.1030 C.2       1 GDP         0.1855
     20 N7         27.2770   23.4040   22.2400 N.2       1 GDP        -0.1929
     21 C5         28.2150   24.1400   21.6220 C.2       1 GDP         0.2558
     22 C6         28.2130   25.1990   20.5980 C.2       1 GDP         0.2628
     23 O6         27.1160   25.5550   20.1150 O.2       1 GDP        -0.3594
     24 N1         29.3800   25.7220   20.2070 N.am      1 GDP        -0.2478
     25 C2         30.5610   25.3140   20.7270 C.cat     1 GDP         0.2041
     26 N2         31.7110   25.8810   20.2860 N.pl3     1 GDP        -0.3327
     27 N3         30.6380   24.3420   21.6760 N.pl3     1 GDP        -0.1901
     28 C4         29.5240   23.7320   22.1500 C.2       1 GDP         0.3268
     29 H1         29.2405   18.2512   23.6717 H         1 GDP         0.0648
     30 H2         29.4663   18.1678   25.4518 H         1 GDP         0.0648
     31 H3         31.4060   19.2449   24.3758 H         1 GDP         0.0651
     32 H4         29.9995   20.2401   26.5868 H         1 GDP         0.0648
     33 H5         32.0167   21.4065   26.7863 H         1 GDP         0.2100
     34 H6         28.9124   22.0865   25.4927 H         1 GDP         0.0677
     35 H7         31.6016   23.0183   25.8068 H         1 GDP         0.2101
     36 H8         31.2922   22.5337   23.6656 H         1 GDP         0.1021
     37 H9         27.4537   21.8440   23.7439 H         1 GDP         0.1823
     38 H10        29.3800   26.4373   19.5082 H         1 GDP         0.1819
     39 H11        32.6160   25.5789   20.6741 H         1 GDP         0.1774
     40 H12        31.6796   26.6138   19.5629 H         1 GDP         0.1774
     41 H13        31.5602   24.0644   22.0412 H         1 GDP         0.2519
@<TRIPOS>BOND
     1    1    2 ar 
     2    1    3 ar 
     3    1    4 ar 
     4    1    5 1  
     5    5    6 1  
     6    6    7 ar 
     7    6    8 ar 
     8    6    9 1  
     9    9   10 1  
    10   10   11 1  
    11   11   12 1  
    12   11   13 1  
    13   12   17 1  
    14   13   14 1  
    15   13   15 1  
    16   15   16 1  
    17   15   17 1  
    18   17   18 1  
    19   18   19 1  
    20   18   28 1  
    21   19   20 2  
    22   20   21 1  
    23   21   22 1  
    24   21   28 2  
    25   22   23 2  
    26   22   24 am 
    27   24   25 ar 
    28   25   26 ar 
    29   25   27 ar 
    30   27   28 1  
    31   10   29 1  
    32   10   30 1  
    33   11   31 1  
    34   13   32 1  
    35   14   33 1  
    36   15   34 1  
    37   16   35 1  
    38   17   36 1  
    39   19   37 1  
    40   24   38 1  
    41   26   39 1  
    42   26   40 1  
    43   27   41 1  
@<TRIPOS>SUBSTRUCTURE
     1 GDP         1

