### 
### Created by X-TOOL on Fri Sep 26 17:34:42 2014
### 

@<TRIPOS>MOLECULE
3bb1_ligand
   46    48     1     0     0
SMALL
GAST_HUCK


@<TRIPOS>ATOM
      1 PG         -0.7690   55.4090   40.6870 P.3       1 GNP         0.1803
      2 O1G        -1.0110   54.7390   39.3630 O.co2     1 GNP        -0.5454
      3 O2G        -2.1510   55.7400   41.2400 O.co2     1 GNP        -0.5454
      4 O3G         0.1930   56.5400   40.6180 O.co2     1 GNP        -0.5454
      5 N3B        -0.0870   54.1750   41.6390 N.am      1 GNP        -0.1803
      6 PB         -0.1060   54.1980   43.2850 P.3       1 GNP         0.2543
      7 O1B         0.9980   54.9000   43.9410 O.co2     1 GNP        -0.6257
      8 O2B        -1.4690   54.5760   43.8030 O.co2     1 GNP        -0.6257
      9 O3A         0.1760   52.6580   43.6590 O.3       1 GNP        -0.1431
     10 PA         -1.0530   51.6310   43.9100 P.3       1 GNP         0.2949
     11 O1A        -1.6910   51.8480   45.2410 O.co2     1 GNP        -0.6129
     12 O2A        -1.8420   51.6730   42.6650 O.co2     1 GNP        -0.6129
     13 O5'        -0.3040   50.2820   44.1050 O.3       1 GNP        -0.2478
     14 C5'         0.6480   49.9400   43.0920 C.3       1 GNP         0.1128
     15 C4'         0.8640   48.4650   43.0600 C.3       1 GNP         0.1190
     16 O4'         1.7860   48.2370   44.1470 O.3       1 GNP        -0.3347
     17 C3'        -0.3560   47.5900   43.3230 C.3       1 GNP         0.1151
     18 O3'        -0.1490   46.3210   42.7030 O.3       1 GNP        -0.3864
     19 C2'        -0.3210   47.2870   44.7720 C.3       1 GNP         0.1407
     20 O2'        -0.8350   46.0000   45.0570 O.3       1 GNP        -0.3835
     21 C1'         1.1970   47.3210   45.0520 C.3       1 GNP         0.2218
     22 N9          1.5780   47.7910   46.3620 N.pl3     1 GNP        -0.0954
     23 C8          1.3700   49.0360   46.9160 C.2       1 GNP         0.1855
     24 N7          1.8330   49.1560   48.1320 N.2       1 GNP        -0.1929
     25 C5          2.4120   47.9060   48.3460 C.2       1 GNP         0.2558
     26 C6          3.0950   47.4530   49.4930 C.2       1 GNP         0.2628
     27 O6          3.3450   48.0360   50.5680 O.2       1 GNP        -0.3594
     28 N1          3.4820   46.1180   49.2960 N.am      1 GNP        -0.2478
     29 C2          3.2880   45.3430   48.1970 C.cat     1 GNP         0.2041
     30 N2          3.7680   44.0880   48.2490 N.pl3     1 GNP        -0.3327
     31 N3          2.6780   45.7900   47.1210 N.pl3     1 GNP        -0.1901
     32 C4          2.2570   47.0640   47.2950 C.2       1 GNP         0.3268
     33 H1          0.3452   53.4002   41.1776 H         1 GNP         0.2132
     34 H2          1.6029   50.4417   43.3075 H         1 GNP         0.0648
     35 H3          0.2716   50.2727   42.1134 H         1 GNP         0.0648
     36 H4          1.3030   48.1798   42.0926 H         1 GNP         0.0651
     37 H5         -1.2918   48.0707   43.0017 H         1 GNP         0.0648
     38 H6         -0.9034   45.7652   42.8597 H         1 GNP         0.2100
     39 H7         -0.8645   48.0442   45.3562 H         1 GNP         0.0677
     40 H8         -0.7957   45.8435   45.9932 H         1 GNP         0.2101
     41 H9          1.6033   46.3101   44.9005 H         1 GNP         0.1021
     42 H10         0.8663   49.8449   46.3889 H         1 GNP         0.1823
     43 H11         3.9598   45.6834   50.0594 H         1 GNP         0.1819
     44 H12         3.6487   43.4572   47.4435 H         1 GNP         0.1774
     45 H13         4.2550   43.7575   49.0943 H         1 GNP         0.1774
     46 H14         2.5391   45.2425   46.2597 H         1 GNP         0.2519
@<TRIPOS>BOND
     1    1    2 ar 
     2    1    3 ar 
     3    1    4 ar 
     4    1    5 am 
     5    5    6 1  
     6    6    7 ar 
     7    6    8 ar 
     8    6    9 1  
     9    9   10 1  
    10   10   11 ar 
    11   10   12 ar 
    12   10   13 1  
    13   13   14 1  
    14   14   15 1  
    15   15   16 1  
    16   15   17 1  
    17   16   21 1  
    18   17   18 1  
    19   17   19 1  
    20   19   20 1  
    21   19   21 1  
    22   21   22 1  
    23   22   23 1  
    24   22   32 1  
    25   23   24 2  
    26   24   25 1  
    27   25   26 1  
    28   25   32 2  
    29   26   27 2  
    30   26   28 am 
    31   28   29 ar 
    32   29   30 ar 
    33   29   31 ar 
    34   31   32 1  
    35    5   33 1  
    36   14   34 1  
    37   14   35 1  
    38   15   36 1  
    39   17   37 1  
    40   18   38 1  
    41   19   39 1  
    42   20   40 1  
    43   21   41 1  
    44   23   42 1  
    45   28   43 1  
    46   30   44 1  
    47   30   45 1  
    48   31   46 1  
@<TRIPOS>SUBSTRUCTURE
     1 GNP         1

