### 
### Created by X-TOOL on Fri Sep 26 17:34:41 2014
### 

@<TRIPOS>MOLECULE
3ctr_ligand
   49    51     1     0     0
SMALL
GAST_HUCK


@<TRIPOS>ATOM
      1 PA         26.4300   21.0750    0.5890 P.3       1 MGP         0.3266
      2 O1A        25.6220   19.9890   -0.0290 O.co2     1 MGP        -0.5692
      3 O2A        26.0950   22.5000    0.2920 O.co2     1 MGP        -0.5692
      4 O3A        26.4290   20.8320    2.1800 O.3       1 MGP        -0.1171
      5 O5'        27.9960   20.8000    0.2440 O.3       1 MGP        -0.2441
      6 PB         27.4430   21.6270    3.1440 P.3       1 MGP         0.3553
      7 O1B        27.3080   23.0790    2.8820 O.co2     1 MGP        -0.5652
      8 O2B        28.7760   20.9920    3.0680 O.co2     1 MGP        -0.5652
      9 O3B        26.7930   21.3120    4.5780 O.3       1 MGP        -0.1546
     10 PC         26.7610   19.8200    5.1970 P.3       1 MGP         0.1879
     11 O1C        28.0990   19.2170    5.4330 O.co2     1 MGP        -0.6091
     12 O2C        25.8340   18.8940    4.2470 O.co2     1 MGP        -0.6091
     13 O3C        25.9290   19.9960    6.5790 O.co2     1 MGP        -0.6091
     14 C5'        28.7450   21.6180   -0.6640 C.3       1 MGP         0.1130
     15 C4'        29.5810   20.7880   -1.6500 C.3       1 MGP         0.1169
     16 O4'        30.1730   19.6070   -1.0190 O.3       1 MGP        -0.3529
     17 C3'        28.6940   20.2530   -2.7780 C.3       1 MGP         0.1129
     18 O3'        28.6240   21.2390   -3.8260 O.3       1 MGP        -0.3865
     19 C2'        29.4780   19.0240   -3.2450 C.3       1 MGP         0.1208
     20 O2'        30.5400   19.4180   -4.1240 O.3       1 MGP        -0.3857
     21 C1'        30.0800   18.4850   -1.9320 C.3       1 MGP         0.1656
     22 N9         29.1760   17.4750   -1.3250 N.2       1 MGP        -0.1577
     23 C8         28.2650   17.6910   -0.3730 C.2       1 MGP         0.2318
     24 N7         27.6530   16.5410   -0.1130 N.pl3     1 MGP        -0.0547
     25 CM7        26.5800   16.4150    0.9050 C.3       1 MGP         0.0996
     26 C5         28.1570   15.5670   -0.8790 C.2       1 MGP         0.4523
     27 C6         27.9340   14.1920   -1.0350 C.2       1 MGP         0.4098
     28 O6         27.0950   13.5790   -0.3710 O.2       1 MGP        -0.2762
     29 N1         28.6950   13.4980   -1.9770 N.am      1 MGP        -0.2152
     30 C2         29.6610   14.1870   -2.7240 C.cat     1 MGP         0.2333
     31 N2         30.4110   13.5580   -3.6230 N.pl3     1 MGP        -0.3251
     32 N3         29.8460   15.4970   -2.5530 N.pl3     1 MGP        -0.1473
     33 C4         29.1360   16.1870   -1.6540 C.2       1 MGP         0.4104
     34 H1         29.4214   22.2620   -0.0829 H         1 MGP         0.0648
     35 H2         28.0439   22.2438   -1.2356 H         1 MGP         0.0648
     36 H3         30.3764   21.4251   -2.0641 H         1 MGP         0.0650
     37 H4         27.6855   19.9888   -2.4271 H         1 MGP         0.0647
     38 H5         29.4977   21.4095   -4.1578 H         1 MGP         0.2100
     39 H6         28.8264   18.2850   -3.7341 H         1 MGP         0.0655
     40 H7         30.1750   19.8607   -4.8813 H         1 MGP         0.2100
     41 H8         31.0714   18.0456   -2.1164 H         1 MGP         0.0758
     42 H9         28.0590   18.6461    0.1078 H         1 MGP         0.2243
     43 H10        26.3921   17.3973    1.3631 H         1 MGP         0.0658
     44 H11        26.8934   15.7021    1.6819 H         1 MGP         0.0658
     45 H12        25.6594   16.0524    0.4245 H         1 MGP         0.0658
     46 H13        28.5526   12.5183   -2.1179 H         1 MGP         0.1858
     47 H14        31.1157   14.0809   -4.1623 H         1 MGP         0.1812
     48 H15        30.2876   12.5476   -3.7804 H         1 MGP         0.1812
     49 H16        30.5493   15.9865   -3.1245 H         1 MGP         0.2869
@<TRIPOS>BOND
     1    1    2 ar 
     2    1    3 ar 
     3    1    4 1  
     4    1    5 1  
     5    4    6 1  
     6    5   14 1  
     7    6    7 ar 
     8    6    8 ar 
     9    6    9 1  
    10    9   10 1  
    11   10   11 ar 
    12   10   12 ar 
    13   10   13 ar 
    14   14   15 1  
    15   15   16 1  
    16   15   17 1  
    17   16   21 1  
    18   17   18 1  
    19   17   19 1  
    20   19   20 1  
    21   19   21 1  
    22   21   22 1  
    23   22   23 2  
    24   22   33 1  
    25   23   24 1  
    26   24   25 1  
    27   24   26 1  
    28   26   27 1  
    29   26   33 2  
    30   27   28 2  
    31   27   29 am 
    32   29   30 ar 
    33   30   31 ar 
    34   30   32 ar 
    35   32   33 1  
    36   14   34 1  
    37   14   35 1  
    38   15   36 1  
    39   17   37 1  
    40   18   38 1  
    41   19   39 1  
    42   20   40 1  
    43   21   41 1  
    44   23   42 1  
    45   25   43 1  
    46   25   44 1  
    47   25   45 1  
    48   29   46 1  
    49   31   47 1  
    50   31   48 1  
    51   32   49 1  
@<TRIPOS>SUBSTRUCTURE
     1 MGP         1

