### 
### Created by X-TOOL on Fri Sep 26 17:34:42 2014
### 

@<TRIPOS>MOLECULE
3dba_ligand
   35    38     1     0     0
SMALL
GAST_HUCK


@<TRIPOS>ATOM
      1 P          17.2480   35.9140   26.1770 P.3       1 MOL         0.2557
      2 O1P        18.0360   36.1300   27.4490 O.co2     1 MOL        -0.6177
      3 O2P        16.7590   37.0760   25.3400 O.co2     1 MOL        -0.6177
      4 O5'        15.9490   35.0550   26.5650 O.3       1 MOL        -0.2514
      5 C5'        15.1960   34.4160   25.5360 C.3       1 MOL         0.1128
      6 C4'        16.1740   33.5300   24.7910 C.3       1 MOL         0.1243
      7 O4'        15.6770   32.8360   23.6590 O.3       1 MOL        -0.3343
      8 C3'        17.2910   34.3330   24.1870 C.3       1 MOL         0.1541
      9 O3'        18.0470   34.9100   25.2280 O.3       1 MOL        -0.2453
     10 C2'        17.9870   33.2630   23.3920 C.3       1 MOL         0.1461
     11 O2'        18.9460   32.6040   24.2280 O.3       1 MOL        -0.3831
     12 C1'        16.8310   32.3630   22.9740 C.3       1 MOL         0.2222
     13 N9         16.6140   32.4510   21.5140 N.pl3     1 MOL        -0.0954
     14 C8         16.3490   33.5580   20.7850 C.2       1 MOL         0.1855
     15 N7         16.2260   33.2410   19.4610 N.2       1 MOL        -0.1929
     16 C5         16.4080   31.9090   19.3420 C.2       1 MOL         0.2558
     17 C6         16.4340   30.9180   18.2530 C.2       1 MOL         0.2628
     18 O6         16.2290   31.2400   17.0670 O.2       1 MOL        -0.3594
     19 N1         16.6630   29.6420   18.5830 N.am      1 MOL        -0.2478
     20 C2         16.8910   29.2400   19.8460 C.cat     1 MOL         0.2041
     21 N2         17.1290   27.9350   20.0910 N.pl3     1 MOL        -0.3327
     22 N3         16.8970   30.0950   20.8880 N.pl3     1 MOL        -0.1901
     23 C4         16.6690   31.4050   20.6940 C.2       1 MOL         0.3268
     24 H1         14.7652   35.1657   24.8561 H         1 MOL         0.0647
     25 H2         14.3885   33.8105   25.9733 H         1 MOL         0.0647
     26 H3         16.5733   32.8032   25.5136 H         1 MOL         0.0655
     27 H4         16.9204   35.1304   23.5261 H         1 MOL         0.0712
     28 H5         18.4954   33.6793   22.5098 H         1 MOL         0.0681
     29 H6         19.3883   31.9269   23.7296 H         1 MOL         0.2102
     30 H7         17.0410   31.3201   23.2538 H         1 MOL         0.1022
     31 H8         16.2477   34.5618   21.1950 H         1 MOL         0.1823
     32 H9         16.6647   28.9548   17.8565 H         1 MOL         0.1819
     33 H10        17.3049   27.6156   21.0543 H         1 MOL         0.1774
     34 H11        17.1348   27.2580   19.3148 H         1 MOL         0.1774
     35 H12        17.0774   29.7421   21.8387 H         1 MOL         0.2519
@<TRIPOS>BOND
     1    1    2 ar 
     2    1    3 ar 
     3    1    4 1  
     4    1    9 1  
     5    4    5 1  
     6    5    6 1  
     7    6    7 1  
     8    6    8 1  
     9    7   12 1  
    10    8    9 1  
    11    8   10 1  
    12   10   11 1  
    13   10   12 1  
    14   12   13 1  
    15   13   14 1  
    16   13   23 1  
    17   14   15 2  
    18   15   16 1  
    19   16   17 1  
    20   16   23 2  
    21   17   18 2  
    22   17   19 am 
    23   19   20 ar 
    24   20   21 ar 
    25   20   22 ar 
    26   22   23 1  
    27    5   24 1  
    28    5   25 1  
    29    6   26 1  
    30    8   27 1  
    31   10   28 1  
    32   11   29 1  
    33   12   30 1  
    34   14   31 1  
    35   19   32 1  
    36   21   33 1  
    37   21   34 1  
    38   22   35 1  
@<TRIPOS>SUBSTRUCTURE
     1 MOL         1

