### 
### Created by X-TOOL on Fri Sep 26 17:34:46 2014
### 

@<TRIPOS>MOLECULE
3ftq_ligand
   46    48     1     0     0
SMALL
GAST_HUCK


@<TRIPOS>ATOM
      1 PG         34.4590   14.3900    3.4350 P.3       1 GNP         0.1803
      2 O1G        34.8950   14.7590    2.0370 O.co2     1 GNP        -0.5454
      3 O2G        33.1380   14.9560    3.9090 O.co2     1 GNP        -0.5454
      4 O3G        35.6330   14.7640    4.3120 O.co2     1 GNP        -0.5454
      5 N3B        34.3600   12.7960    3.5120 N.am      1 GNP        -0.1803
      6 PB         33.1970   11.8970    2.8920 P.3       1 GNP         0.2543
      7 O1B        31.9790   11.9850    3.7460 O.co2     1 GNP        -0.6257
      8 O2B        33.0300   12.3200    1.4820 O.co2     1 GNP        -0.6257
      9 O3A        33.7080   10.4400    2.9160 O.3       1 GNP        -0.1431
     10 PA         34.3970    9.7140    1.7450 P.3       1 GNP         0.2949
     11 O1A        33.3700    9.3360    0.7470 O.co2     1 GNP        -0.6129
     12 O2A        35.5770   10.4600    1.2730 O.co2     1 GNP        -0.6129
     13 O5'        34.9540    8.3530    2.2910 O.3       1 GNP        -0.2478
     14 C5'        35.9240    8.2810    3.3360 C.3       1 GNP         0.1128
     15 C4'        36.3880    6.8470    3.4260 C.3       1 GNP         0.1190
     16 O4'        35.3500    6.0240    4.0220 O.3       1 GNP        -0.3347
     17 C3'        36.5850    6.2380    2.0490 C.3       1 GNP         0.1151
     18 O3'        37.8950    6.5260    1.6610 O.3       1 GNP        -0.3864
     19 C2'        36.3540    4.7480    2.2600 C.3       1 GNP         0.1407
     20 O2'        37.5750    4.0990    2.5340 O.3       1 GNP        -0.3835
     21 C1'        35.4560    4.7060    3.5020 C.3       1 GNP         0.2218
     22 N9         34.1080    4.2740    3.2060 N.pl3     1 GNP        -0.0954
     23 C8         33.3360    4.7340    2.1620 C.2       1 GNP         0.1855
     24 N7         32.1470    4.2000    2.1010 N.2       1 GNP        -0.1929
     25 C5         32.1400    3.3390    3.1790 C.2       1 GNP         0.2558
     26 C6         31.1070    2.5110    3.6070 C.2       1 GNP         0.2628
     27 O6         30.0020    2.3780    3.0940 O.2       1 GNP        -0.3594
     28 N1         31.4510    1.7910    4.7400 N.am      1 GNP        -0.2478
     29 C2         32.6530    1.8700    5.3850 C.cat     1 GNP         0.2041
     30 N2         32.7520    1.0860    6.4600 N.pl3     1 GNP        -0.3327
     31 N3         33.6530    2.6590    4.9980 N.pl3     1 GNP        -0.1901
     32 C4         33.3250    3.3660    3.8830 C.2       1 GNP         0.3268
     33 H1         35.0950   12.3184    3.9933 H         1 GNP         0.2132
     34 H2         35.4720    8.5901    4.2900 H         1 GNP         0.0648
     35 H3         36.7756    8.9374    3.1040 H         1 GNP         0.0648
     36 H4         37.3178    6.7971    4.0116 H         1 GNP         0.0651
     37 H5         35.8727    6.6429    1.3151 H         1 GNP         0.0648
     38 H6         38.0579    6.1597    0.7998 H         1 GNP         0.2100
     39 H7         35.8647    4.2874    1.3891 H         1 GNP         0.0677
     40 H8         37.4182    3.1710    2.6636 H         1 GNP         0.2101
     41 H9         35.9028    4.0327    4.2483 H         1 GNP         0.1021
     42 H10        33.6875    5.4787    1.4494 H         1 GNP         0.1823
     43 H11        30.7667    1.1653    5.1145 H         1 GNP         0.1819
     44 H12        33.6213    1.0767    7.0123 H         1 GNP         0.1774
     45 H13        31.9591    0.4900    6.7376 H         1 GNP         0.1774
     46 H14        34.5600    2.7257    5.4815 H         1 GNP         0.2519
@<TRIPOS>BOND
     1    1    2 ar 
     2    1    3 ar 
     3    1    4 ar 
     4    1    5 am 
     5    5    6 1  
     6    6    7 ar 
     7    6    8 ar 
     8    6    9 1  
     9    9   10 1  
    10   10   11 ar 
    11   10   12 ar 
    12   10   13 1  
    13   13   14 1  
    14   14   15 1  
    15   15   16 1  
    16   15   17 1  
    17   16   21 1  
    18   17   18 1  
    19   17   19 1  
    20   19   20 1  
    21   19   21 1  
    22   21   22 1  
    23   22   23 1  
    24   22   32 1  
    25   23   24 2  
    26   24   25 1  
    27   25   26 1  
    28   25   32 2  
    29   26   27 2  
    30   26   28 am 
    31   28   29 ar 
    32   29   30 ar 
    33   29   31 ar 
    34   31   32 1  
    35    5   33 1  
    36   14   34 1  
    37   14   35 1  
    38   15   36 1  
    39   17   37 1  
    40   18   38 1  
    41   19   39 1  
    42   20   40 1  
    43   21   41 1  
    44   23   42 1  
    45   28   43 1  
    46   30   44 1  
    47   30   45 1  
    48   31   46 1  
@<TRIPOS>SUBSTRUCTURE
     1 GNP         1

