### 
### Created by X-TOOL on Fri Sep 26 17:34:46 2014
### 

@<TRIPOS>MOLECULE
3gep_ligand
   34    35     1     0     0
SMALL
GAST_HUCK


@<TRIPOS>ATOM
      1 C4         19.2420   55.9400    7.8790 C.2       1 MOL         0.3244
      2 C5         20.2420   54.9740    7.9570 C.2       1 MOL         0.2557
      3 C6         20.0140   53.7050    7.4340 C.2       1 MOL         0.2628
      4 C8         20.9630   56.8160    8.8710 C.2       1 MOL         0.1825
      5 O6         20.9000   52.8240    7.4970 O.2       1 MOL        -0.3594
      6 N7         21.2930   55.5380    8.5820 N.2       1 MOL        -0.1931
      7 N1         18.8180   53.4320    6.8590 N.am      1 MOL        -0.2478
      8 C2         17.8450   54.3760    6.7950 C.cat     1 MOL         0.2041
      9 N2         16.6630   54.0790    6.2020 N.pl3     1 MOL        -0.3327
     10 N3         18.0520   55.6160    7.3020 N.pl3     1 MOL        -0.1902
     11 N9         19.7120   57.0590    8.4660 N.pl3     1 MOL        -0.1245
     12 CAJ        19.0140   58.3380    8.5910 C.3       1 MOL         0.1115
     13 CAS        18.6030   58.7820   10.0020 C.3       1 MOL         0.1132
     14 CAH        17.2510   58.1590   10.2980 C.3       1 MOL         0.0732
     15 OAD        16.3320   59.2590   10.3440 O.3       1 MOL        -0.3924
     16 OAN        19.5490   58.6020   11.0820 O.3       1 MOL        -0.3542
     17 CAI        19.3100   59.6060   12.0820 C.3       1 MOL         0.1182
     18 PAU        20.7510   60.1120   13.0790 P.3       1 MOL         0.0846
     19 OAE        20.8400   59.0940   14.1900 O.co2     1 MOL        -0.5607
     20 OAF        21.9220   60.1400   12.1290 O.co2     1 MOL        -0.5607
     21 OAC        20.4270   61.4920   13.5960 O.co2     1 MOL        -0.5607
     22 H1         21.6161   57.5379    9.3592 H         1 MOL         0.1822
     23 H2         18.6500   52.5233    6.4769 H         1 MOL         0.1819
     24 H3         15.9200   54.7904    6.1497 H         1 MOL         0.1774
     25 H4         16.5078   53.1419    5.8036 H         1 MOL         0.1774
     26 H5         17.3019   56.3199    7.2503 H         1 MOL         0.2519
     27 H6         18.0983   58.2751    7.9848 H         1 MOL         0.0668
     28 H7         19.6737   59.1159    8.1791 H         1 MOL         0.0668
     29 H8         18.4490   59.8695    9.9412 H         1 MOL         0.0649
     30 H9         17.2718   57.6331   11.2639 H         1 MOL         0.0584
     31 H10        16.9688   57.4537    9.5025 H         1 MOL         0.0584
     32 H11        15.4583   58.9342   10.5274 H         1 MOL         0.2095
     33 H12        18.5455   59.2176   12.7710 H         1 MOL         0.0753
     34 H13        18.9238   60.5012   11.5727 H         1 MOL         0.0753
@<TRIPOS>BOND
     1    1    2 2  
     2    1   10 1  
     3    1   11 1  
     4    2    3 1  
     5    2    6 1  
     6    3    5 2  
     7    3    7 am 
     8    6    4 2  
     9    4   11 1  
    10    7    8 ar 
    11    8    9 ar 
    12    8   10 ar 
    13   11   12 1  
    14   12   13 1  
    15   13   14 1  
    16   13   16 1  
    17   14   15 1  
    18   16   17 1  
    19   17   18 1  
    20   18   19 ar 
    21   18   20 ar 
    22   18   21 ar 
    23    4   22 1  
    24    7   23 1  
    25    9   24 1  
    26    9   25 1  
    27   10   26 1  
    28   12   27 1  
    29   12   28 1  
    30   13   29 1  
    31   14   30 1  
    32   14   31 1  
    33   15   32 1  
    34   17   33 1  
    35   17   34 1  
@<TRIPOS>SUBSTRUCTURE
     1 MOL         1

