### 
### Created by X-TOOL on Fri Sep 26 17:34:45 2014
### 

@<TRIPOS>MOLECULE
3hxi_ligand
   81    86     1     0     0
SMALL
GAST_HUCK


@<TRIPOS>ATOM
      1 PA         35.0610   18.6070    3.4120 P.3       1 GTG         0.2978
      2 O1A        34.7370   17.9350    2.1050 O.co2     1 GTG        -0.6127
      3 O2A        33.9850   18.9630    4.4150 O.co2     1 GTG        -0.6127
      4 O3A        36.2170   17.8450    4.2250 O.3       1 GTG        -0.1265
      5 PB         36.8330   16.3960    3.9980 P.3       1 GTG         0.3355
      6 O1B        35.7560   15.3400    3.9600 O.co2     1 GTG        -0.6079
      7 O2B        37.9630   16.2800    5.0160 O.co2     1 GTG        -0.6079
      8 O3B        37.5250   16.5920    2.5600 O.3       1 GTG        -0.1265
      9 N9A        34.9000   23.7060    1.7710 N.2       1 GTG        -0.1577
     10 C8A        33.9860   22.9410    2.3770 C.2       1 GTG         0.2318
     11 N7A        32.8760   23.6820    2.5940 N.pl3     1 GTG        -0.0547
     12 C7X        31.6510   23.1560    3.2460 C.3       1 GTG         0.0996
     13 C5A        33.1140   24.9070    2.1190 C.2       1 GTG         0.4523
     14 C6A        32.3180   26.0580    2.0850 C.2       1 GTG         0.4098
     15 O6A        31.1520   26.0960    2.5420 O.2       1 GTG        -0.2762
     16 N1A        32.8550   27.1810    1.5460 N.am      1 GTG        -0.2152
     17 C2A        34.1260   27.1600    1.0330 C.cat     1 GTG         0.2333
     18 N2A        34.6790   28.2580    0.4870 N.pl3     1 GTG        -0.3251
     19 N3A        34.8870   26.0430    1.0650 N.pl3     1 GTG        -0.1473
     20 C4A        34.3840   24.9160    1.5980 C.2       1 GTG         0.4104
     21 O5D        35.7630   19.9760    3.0360 O.3       1 GTG        -0.2476
     22 C5D        36.9330   19.9520    2.2250 C.3       1 GTG         0.1127
     23 C4D        37.3410   21.3710    1.8980 C.3       1 GTG         0.1168
     24 O4D        36.3480   21.9440    1.0590 O.3       1 GTG        -0.3529
     25 C3D        37.4250   22.2830    3.1050 C.3       1 GTG         0.1129
     26 O3D        38.6700   22.1330    3.7840 O.3       1 GTG        -0.3865
     27 C2D        37.2560   23.6410    2.4670 C.3       1 GTG         0.1208
     28 O2D        38.5040   24.0730    1.9040 O.3       1 GTG        -0.3857
     29 C1D        36.2720   23.3410    1.3420 C.3       1 GTG         0.1656
     30 PG         38.1790   15.4550    1.6320 P.3       1 GTG         0.2978
     31 O1G        37.6950   14.0770    1.9540 O.co2     1 GTG        -0.6127
     32 O2G        39.6710   15.7240    1.5410 O.co2     1 GTG        -0.6127
     33 O5E        37.5480   15.8920    0.2200 O.3       1 GTG        -0.2476
     34 C5E        36.1680   15.6560   -0.0530 C.3       1 GTG         0.1128
     35 C4E        35.8480   16.0650   -1.4760 C.3       1 GTG         0.1190
     36 O4E        36.0570   17.4740   -1.6080 O.3       1 GTG        -0.3347
     37 C3E        36.7610   15.4160   -2.5000 C.3       1 GTG         0.1151
     38 O3E        36.0190   15.3310   -3.7280 O.3       1 GTG        -0.3864
     39 C2E        37.8860   16.4220   -2.6970 C.3       1 GTG         0.1407
     40 O2E        38.5200   16.3110   -3.9820 O.3       1 GTG        -0.3835
     41 C1E        37.1070   17.7230   -2.5630 C.3       1 GTG         0.2218
     42 N9B        37.8390   18.9090   -2.0760 N.pl3     1 GTG        -0.0954
     43 C8B        38.4110   18.7640   -0.7580 C.2       1 GTG         0.1855
     44 N7B        38.9960   20.0870   -0.5640 N.2       1 GTG        -0.1929
     45 C5B        38.7120   20.8490   -1.6630 C.2       1 GTG         0.2558
     46 C6B        39.0210   22.2410   -2.0350 C.2       1 GTG         0.2628
     47 O6B        39.6780   22.9370   -1.2150 O.2       1 GTG        -0.3594
     48 N1B        38.5950   22.6900   -3.2500 N.am      1 GTG        -0.2478
     49 C2B        37.8800   21.8910   -4.1150 C.cat     1 GTG         0.2041
     50 N2B        37.4550   22.3570   -5.3160 N.pl3     1 GTG        -0.3327
     51 N3B        37.5610   20.6050   -3.8290 N.pl3     1 GTG        -0.1901
     52 C4B        37.9370   20.0740   -2.6480 C.2       1 GTG         0.3268
     53 H          34.1144   21.8938    2.6507 H         1 GTG         0.2243
     54 H          31.2584   22.3241    2.6613 H         1 GTG         0.0658
     55 H          31.8950   22.8121    4.2511 H         1 GTG         0.0658
     56 H          30.9030   23.9468    3.3027 H         1 GTG         0.0658
     57 H          32.3114   28.0437    1.5223 H         1 GTG         0.1858
     58 H          34.1508   29.1297    0.4486 H         1 GTG         0.1812
     59 H          35.6265   28.2188    0.1114 H         1 GTG         0.1812
     60 H          35.8347   26.0553    0.6880 H         1 GTG         0.2869
     61 H          36.7275   19.4088    1.3026 H         1 GTG         0.0648
     62 H          37.7402   19.4540    2.7622 H         1 GTG         0.0648
     63 H          38.3282   21.2987    1.4416 H         1 GTG         0.0650
     64 H          36.6872   22.0820    3.8818 H         1 GTG         0.0647
     65 H          39.3880   22.3516    3.1855 H         1 GTG         0.2100
     66 H          36.9281   24.4176    3.1580 H         1 GTG         0.0655
     67 H          39.1649   24.1280    2.5981 H         1 GTG         0.2100
     68 H          36.5156   23.9177    0.4497 H         1 GTG         0.0758
     69 H          35.5595   16.2422    0.6355 H         1 GTG         0.0648
     70 H          35.9523   14.5951    0.0738 H         1 GTG         0.0648
     71 H          34.8190   15.7567   -1.6610 H         1 GTG         0.0651
     72 H          37.1232   14.4314   -2.2043 H         1 GTG         0.0648
     73 H          36.5661   14.9237   -4.4036 H         1 GTG         0.2100
     74 H          38.7174   16.3025   -2.0023 H         1 GTG         0.0677
     75 H          37.8699   16.4608   -4.6723 H         1 GTG         0.2101
     76 H          36.7945   17.9741   -3.5766 H         1 GTG         0.1021
     77 H          38.4070   17.9022   -0.0906 H         1 GTG         0.1823
     78 H          38.8125   23.6473   -3.5270 H         1 GTG         0.1819
     79 H          37.6635   23.3161   -5.5937 H         1 GTG         0.1774
     80 H          36.9269   21.7483   -5.9413 H         1 GTG         0.1774
     81 H          37.0403   20.0430   -4.5023 H         1 GTG         0.2519
@<TRIPOS>BOND
     1    1    2 ar 
     2    1    3 ar 
     3    1    4 1  
     4   21    1 1  
     5    4    5 1  
     6    5    6 ar 
     7    5    7 ar 
     8    5    8 1  
     9    8   30 1  
    10    9   10 2  
    11    9   20 1  
    12   29    9 1  
    13   10   11 1  
    14   11   12 1  
    15   13   11 1  
    16   13   14 1  
    17   20   13 2  
    18   14   15 2  
    19   14   16 am 
    20   17   16 ar 
    21   17   18 ar 
    22   19   17 ar 
    23   20   19 1  
    24   22   21 1  
    25   23   22 1  
    26   24   23 1  
    27   23   25 1  
    28   24   29 1  
    29   25   26 1  
    30   25   27 1  
    31   27   28 1  
    32   27   29 1  
    33   30   31 ar 
    34   30   32 ar 
    35   30   33 1  
    36   33   34 1  
    37   34   35 1  
    38   35   36 1  
    39   35   37 1  
    40   36   41 1  
    41   37   38 1  
    42   37   39 1  
    43   39   40 1  
    44   39   41 1  
    45   41   42 1  
    46   42   43 1  
    47   42   52 1  
    48   43   44 2  
    49   44   45 1  
    50   45   46 1  
    51   45   52 2  
    52   46   47 2  
    53   46   48 am 
    54   48   49 ar 
    55   49   50 ar 
    56   49   51 ar 
    57   51   52 1  
    58   10   53 1  
    59   12   54 1  
    60   12   55 1  
    61   12   56 1  
    62   16   57 1  
    63   18   58 1  
    64   18   59 1  
    65   19   60 1  
    66   22   61 1  
    67   22   62 1  
    68   23   63 1  
    69   25   64 1  
    70   26   65 1  
    71   27   66 1  
    72   28   67 1  
    73   29   68 1  
    74   34   69 1  
    75   34   70 1  
    76   35   71 1  
    77   37   72 1  
    78   38   73 1  
    79   39   74 1  
    80   40   75 1  
    81   41   76 1  
    82   43   77 1  
    83   48   78 1  
    84   50   79 1  
    85   50   80 1  
    86   51   81 1  
@<TRIPOS>SUBSTRUCTURE
     1 GTG         1

