### 
### Created by X-TOOL on Fri Sep 26 17:34:47 2014
### 

@<TRIPOS>MOLECULE
3kyf_ligand
   36    38     1     0     0
SMALL
GAST_HUCK


@<TRIPOS>ATOM
      1 P          -5.1860   10.1580   16.4700 P.3       1 MOL        -0.1354
      2 O1P        -4.6000    9.1780   17.4200 O.co2     1 MOL        -0.8167
      3 O2P        -4.8800    9.8030   15.0590 O.co2     1 MOL        -0.8167
      4 O5'        -4.5800   11.6230   16.6850 O.3       1 MOL        -0.4167
      5 C5'        -4.4910   12.1740   18.0030 C.3       1 MOL         0.0714
      6 C4'        -4.0510   13.6380   17.9490 C.3       1 MOL         0.1146
      7 O4'        -2.7680   13.7940   17.3190 O.3       1 MOL        -0.3349
      8 C3'        -5.0110   14.4550   17.0850 C.3       1 MOL         0.1148
      9 O3'        -6.1470   14.7950   17.8860 O.3       1 MOL        -0.3864
     10 C2'        -4.1310   15.6880   16.8950 C.3       1 MOL         0.1407
     11 O2'        -4.0450   16.4240   18.1180 O.3       1 MOL        -0.3835
     12 C1'        -2.7770   15.0390   16.5980 C.3       1 MOL         0.2218
     13 N9         -2.6600   14.7460   15.1520 N.pl3     1 MOL        -0.0954
     14 C8         -2.8530   13.5710   14.5580 C.2       1 MOL         0.1855
     15 N7         -2.6320   13.6930   13.2510 N.2       1 MOL        -0.1929
     16 C5         -2.2970   14.9570   13.0050 C.2       1 MOL         0.2558
     17 C6         -1.9540   15.6450   11.8470 C.2       1 MOL         0.2628
     18 O6         -1.9220   15.0740   10.7570 O.2       1 MOL        -0.3594
     19 N1         -1.6340   17.0040   11.9440 N.am      1 MOL        -0.2478
     20 C2         -1.6660   17.6290   13.1980 C.cat     1 MOL         0.2041
     21 N2         -1.3330   18.9120   13.3100 N.pl3     1 MOL        -0.3327
     22 N3         -2.0040   16.9330   14.2930 N.pl3     1 MOL        -0.1901
     23 C4         -2.3140   15.6300   14.2200 C.2       1 MOL         0.3268
     24 H          -3.7558   11.6061   18.5732 H         1 MOL         0.0598
     25 H          -5.4719   12.1183   18.4750 H         1 MOL         0.0598
     26 H          -4.0259   13.9742   18.9856 H         1 MOL         0.0648
     27 H          -5.3853   13.9897   16.1731 H         1 MOL         0.0648
     28 H          -5.8604   15.3113   18.6430 H         1 MOL         0.2100
     29 H          -4.4877   16.3823   16.1342 H         1 MOL         0.0677
     30 H          -4.9241   16.7020   18.3853 H         1 MOL         0.2101
     31 H          -1.9563   15.6954   16.8874 H         1 MOL         0.1021
     32 H          -3.1466   12.6510   15.0634 H         1 MOL         0.1823
     33 H          -1.3801   17.5342   11.1105 H         1 MOL         0.1819
     34 H          -1.0545   19.4406   12.4833 H         1 MOL         0.1774
     35 H          -1.3562   19.3671   14.2225 H         1 MOL         0.1774
     36 H          -2.0258   17.4029   15.1980 H         1 MOL         0.2519
@<TRIPOS>BOND
     1    1    2 ar 
     2    1    3 ar 
     3    1    4 1  
     4    4    5 1  
     5    5    6 1  
     6    6    7 1  
     7    6    8 1  
     8    7   12 1  
     9    8    9 1  
    10    8   10 1  
    11   10   11 1  
    12   10   12 1  
    13   12   13 1  
    14   13   14 1  
    15   13   23 1  
    16   14   15 2  
    17   15   16 1  
    18   16   17 1  
    19   16   23 2  
    20   17   18 2  
    21   17   19 am 
    22   19   20 ar 
    23   20   21 ar 
    24   20   22 ar 
    25   22   23 1  
    26    5   24 1  
    27    5   25 1  
    28    6   26 1  
    29    8   27 1  
    30    9   28 1  
    31   10   29 1  
    32   11   30 1  
    33   12   31 1  
    34   14   32 1  
    35   19   33 1  
    36   21   34 1  
    37   21   35 1  
    38   22   36 1  
@<TRIPOS>SUBSTRUCTURE
     1 MOL         1

