### 
### Created by X-TOOL on Fri Sep 26 17:34:57 2014
### 

@<TRIPOS>MOLECULE
3ntp_ligand
   59    61     1     0     0
SMALL
GAST_HUCK


@<TRIPOS>ATOM
      1 P          -6.2450   46.7980   79.9890 P.3       1 RZD         0.2008
      2 C1         -5.9970   40.9080   80.0760 C.3       1 RZD         0.0687
      3 N1         -5.4850   41.4860   81.3320 N.4       1 RZD         0.2558
      4 O1         -7.9590   39.7820   79.4240 O.2       1 RZD        -0.3909
      5 C2         -4.5720   40.5280   81.9730 C.3       1 RZD        -0.0294
      6 N2         -8.0820   41.0680   81.2650 N.am      1 RZD        -0.2811
      7 O2         -5.8100   43.3180   85.4150 O.2       1 RZD        -0.3974
      8 C3         -4.3250   39.3850   80.9970 C.3       1 RZD        -0.0052
      9 N3        -11.3790   38.0530   84.3860 N.pl3     1 RZD        -0.2891
     10 C4         -5.2270   39.6240   79.7950 C.3       1 RZD         0.0128
     11 N4         -5.1520   43.5470   83.2810 N.am      1 RZD        -0.2764
     12 C5         -4.7950   42.7580   81.0810 C.3       1 RZD        -0.0038
     13 C6         -7.4380   40.5390   80.2300 C.2       1 RZD         0.2247
     14 C7         -9.4770   40.8480   81.6320 C.3       1 RZD         0.0353
     15 C8         -9.4730   40.9970   83.1520 C.3       1 RZD        -0.0161
     16 C9         -5.4820   43.8570   81.8920 C.3       1 RZD         0.1092
     17 C10        -4.8430   45.2160   81.6190 C.3       1 RZD         0.1062
     18 C11        -6.0710   43.5820   84.2460 C.2       1 RZD         0.1734
     19 C12        -7.4500   43.9750   83.8080 C.3       1 RZD         0.0257
     20 O1P        -6.3510   46.8270   78.4830 O.co2     1 RZD        -0.5537
     21 C21       -10.0500   39.7710   83.8230 C.2       1 RZD        -0.0444
     22 C22       -11.2470   39.1340   83.5470 C.2       1 RZD         0.0165
     23 C23       -10.2900   37.9690   85.1960 C.ar      1 RZD         0.0603
     24 C24        -9.4160   38.9980   84.9080 C.ar      1 RZD        -0.0215
     25 C25        -8.2010   39.1760   85.5780 C.ar      1 RZD        -0.0747
     26 C26        -7.9110   38.2300   86.5820 C.ar      1 RZD        -0.0792
     27 C27        -8.8020   37.1860   86.8710 C.ar      1 RZD        -0.0768
     28 C28       -10.0080   37.0370   86.1830 C.ar      1 RZD        -0.0443
     29 O2P        -5.6180   48.0430   80.5720 O.co2     1 RZD        -0.5537
     30 O3P        -7.4830   46.2920   80.6850 O.co2     1 RZD        -0.5537
     31 O4P        -5.1580   45.6400   80.2900 O.3       1 RZD        -0.2736
     32 H1         -5.8725   41.6246   79.2508 H         1 RZD         0.1099
     33 H2         -6.2625   41.6591   81.9498 H         1 RZD         0.2056
     34 H3         -5.0274   40.1388   82.8955 H         1 RZD         0.0815
     35 H4         -3.6205   41.0241   82.2148 H         1 RZD         0.0815
     36 H5         -7.5555   41.6810   81.8540 H         1 RZD         0.1854
     37 H6         -4.5733   38.4236   81.4704 H         1 RZD         0.0320
     38 H7         -3.2709   39.3776   80.6827 H         1 RZD         0.0320
     39 H8        -12.1801   37.4058   84.3991 H         1 RZD         0.2216
     40 H9         -4.6221   39.7362   78.8832 H         1 RZD         0.0347
     41 H10        -5.9247   38.7826   79.6710 H         1 RZD         0.0347
     42 H11        -4.2110   43.3018   83.5142 H         1 RZD         0.1857
     43 H12        -4.8463   43.0018   80.0096 H         1 RZD         0.0838
     44 H13        -3.7420   42.6748   81.3881 H         1 RZD         0.0838
     45 H14        -9.8074   39.8413   81.3365 H         1 RZD         0.0534
     46 H15       -10.1299   41.6000   81.1649 H         1 RZD         0.0534
     47 H16       -10.0761   41.8745   83.4281 H         1 RZD         0.0369
     48 H17        -8.4380   41.1405   83.4958 H         1 RZD         0.0369
     49 H18        -6.5661   43.8786   81.7071 H         1 RZD         0.0636
     50 H19        -3.7514   45.1349   81.7275 H         1 RZD         0.0637
     51 H20        -5.2294   45.9527   82.3387 H         1 RZD         0.0637
     52 H21        -7.4505   44.1643   82.7244 H         1 RZD         0.0467
     53 H22        -7.7575   44.8875   84.3397 H         1 RZD         0.0467
     54 H23        -8.1537   43.1615   84.0384 H         1 RZD         0.0467
     55 H24       -11.9669   39.4392   82.7890 H         1 RZD         0.0795
     56 H25        -7.5254   39.9897   85.3402 H         1 RZD         0.0540
     57 H26        -6.9848   38.3106   87.1395 H         1 RZD         0.0510
     58 H27        -8.5476   36.4757   87.6494 H         1 RZD         0.0530
     59 H28       -10.6933   36.2285   86.4105 H         1 RZD         0.0541
@<TRIPOS>BOND
     1    1   20 ar 
     2    1   29 ar 
     3    1   30 ar 
     4   31    1 1  
     5    2    3 1  
     6    2   10 1  
     7   13    2 1  
     8    3    5 1  
     9    3   12 1  
    10   13    4 2  
    11    8    5 1  
    12    6   13 am 
    13   14    6 1  
    14   18    7 2  
    15   10    8 1  
    16   22    9 1  
    17    9   23 1  
    18   16   11 1  
    19   11   18 am 
    20   12   16 1  
    21   15   14 1  
    22   21   15 1  
    23   16   17 1  
    24   17   31 1  
    25   18   19 1  
    26   21   22 2  
    27   21   24 1  
    28   23   24 ar 
    29   23   28 ar 
    30   24   25 ar 
    31   25   26 ar 
    32   26   27 ar 
    33   27   28 ar 
    34    2   32 1  
    35    3   33 1  
    36    5   34 1  
    37    5   35 1  
    38    6   36 1  
    39    8   37 1  
    40    8   38 1  
    41    9   39 1  
    42   10   40 1  
    43   10   41 1  
    44   11   42 1  
    45   12   43 1  
    46   12   44 1  
    47   14   45 1  
    48   14   46 1  
    49   15   47 1  
    50   15   48 1  
    51   16   49 1  
    52   17   50 1  
    53   17   51 1  
    54   19   52 1  
    55   19   53 1  
    56   19   54 1  
    57   22   55 1  
    58   25   56 1  
    59   26   57 1  
    60   27   58 1  
    61   28   59 1  
@<TRIPOS>SUBSTRUCTURE
     1 RZD         1

