### 
### Created by X-TOOL on Fri Sep 26 17:34:52 2014
### 

@<TRIPOS>MOLECULE
3qx8_ligand
   81    86     1     0     0
SMALL
GAST_HUCK


@<TRIPOS>ATOM
      1 PA         18.9070    3.2180  -21.5640 P.3       1 GTG         0.2978
      2 O1A        18.7930    2.0660  -20.6310 O.co2     1 GTG        -0.6127
      3 O2A        17.3990    3.6050  -22.0120 O.co2     1 GTG        -0.6127
      4 O3A        19.8450    2.5750  -22.7780 O.3       1 GTG        -0.1265
      5 PB         20.7840    3.6720  -23.6600 P.3       1 GTG         0.3355
      6 O1B        22.1650    3.9440  -22.8280 O.co2     1 GTG        -0.6079
      7 O2B        21.1810    2.9790  -24.8780 O.co2     1 GTG        -0.6079
      8 O3B        20.0380    5.1520  -24.2190 O.3       1 GTG        -0.1265
      9 N9A        21.7570    6.5640  -16.4180 N.2       1 GTG        -0.1577
     10 C8A        21.9960    6.1530  -15.1430 C.2       1 GTG         0.2318
     11 N7A        23.1920    6.4490  -14.7770 N.pl3     1 GTG        -0.0547
     12 C7X        23.7540    6.1290  -13.4800 C.3       1 GTG         0.0996
     13 C5A        23.8290    7.0750  -15.7970 C.2       1 GTG         0.4523
     14 C6A        25.1460    7.6260  -15.9900 C.2       1 GTG         0.4098
     15 O6A        25.9880    7.5700  -15.1040 O.2       1 GTG        -0.2762
     16 N1A        25.4430    8.2060  -17.2040 N.am      1 GTG        -0.2152
     17 C2A        24.4940    8.2660  -18.2130 C.cat     1 GTG         0.2333
     18 N2A        24.8170    8.8520  -19.4110 N.pl3     1 GTG        -0.3251
     19 N3A        23.2680    7.7570  -18.0450 N.pl3     1 GTG        -0.1473
     20 C4A        22.8980    7.1680  -16.8720 C.2       1 GTG         0.4104
     21 O5D        19.6040    4.3580  -20.6170 O.3       1 GTG        -0.2476
     22 C5D        18.5780    4.9700  -19.7760 C.3       1 GTG         0.1127
     23 C4D        19.1930    5.6420  -18.5350 C.3       1 GTG         0.1168
     24 O4D        20.3870    6.4270  -18.5450 O.3       1 GTG        -0.3529
     25 C3D        18.2280    6.5000  -17.6540 C.3       1 GTG         0.1129
     26 O3D        17.1410    5.7650  -17.0910 O.3       1 GTG        -0.3865
     27 C2D        19.2330    7.0710  -16.6100 C.3       1 GTG         0.1208
     28 O2D        18.8450    6.7680  -15.2620 O.3       1 GTG        -0.3857
     29 C1D        20.4940    6.3320  -17.1090 C.3       1 GTG         0.1656
     30 PG         19.9990    5.3060  -25.7620 P.3       1 GTG         0.2978
     31 O1G        21.4840    4.8760  -26.4930 O.co2     1 GTG        -0.6127
     32 O2G        18.8800    4.5010  -26.3940 O.co2     1 GTG        -0.6127
     33 O5E        20.0730    6.9050  -26.1340 O.3       1 GTG        -0.2476
     34 C5E        19.6450    7.1640  -27.4930 C.3       1 GTG         0.1128
     35 C4E        19.8350    8.6410  -27.6480 C.3       1 GTG         0.1190
     36 O4E        21.1630    8.7080  -28.4030 O.3       1 GTG        -0.3347
     37 C3E        18.9910    9.2920  -28.7080 C.3       1 GTG         0.1151
     38 O3E        18.5290   10.4330  -27.9690 O.3       1 GTG        -0.3864
     39 C2E        19.7610    9.7730  -29.9040 C.3       1 GTG         0.1407
     40 O2E        19.3480   11.1070  -30.2490 O.3       1 GTG        -0.3835
     41 C1E        21.2460    9.7360  -29.5270 C.3       1 GTG         0.2218
     42 N9B        21.6880    9.4030  -30.9110 N.pl3     1 GTG        -0.0954
     43 C8B        22.0500    8.2050  -31.4520 C.2       1 GTG         0.1855
     44 N7B        22.2810    8.3640  -32.7460 N.2       1 GTG        -0.1929
     45 C5B        22.0780    9.6860  -33.0940 C.2       1 GTG         0.2558
     46 C6B        22.1360   10.4660  -34.3280 C.2       1 GTG         0.2628
     47 O6B        22.4080    9.9430  -35.4070 O.2       1 GTG        -0.3594
     48 N1B        21.8710   11.8180  -34.2720 N.am      1 GTG        -0.2478
     49 C2B        21.5530   12.4150  -33.0690 C.cat     1 GTG         0.2041
     50 N2B        21.3120   13.7700  -33.0300 N.pl3     1 GTG        -0.3327
     51 N3B        21.4720   11.7030  -31.9380 N.pl3     1 GTG        -0.1901
     52 C4B        21.7270   10.3620  -31.9140 C.2       1 GTG         0.3268
     53 H1         21.2690    5.6403  -14.5149 H         1 GTG         0.2243
     54 H2         22.9948    5.6220  -12.8664 H         1 GTG         0.0658
     55 H3         24.0712    7.0555  -12.9791 H         1 GTG         0.0658
     56 H4         24.6225    5.4666  -13.6100 H         1 GTG         0.0658
     57 H5         26.3539    8.5883  -17.3592 H         1 GTG         0.1858
     58 H6         24.1177    8.9006  -20.1657 H         1 GTG         0.1812
     59 H7         25.7588    9.2433  -19.5556 H         1 GTG         0.1812
     60 H8         22.5894    7.8112  -18.8179 H         1 GTG         0.2869
     61 H9         17.8731    4.1917  -19.4486 H         1 GTG         0.0648
     62 H10        18.0399    5.7285  -20.3634 H         1 GTG         0.0648
     63 H11        19.4555    4.7676  -17.9215 H         1 GTG         0.0650
     64 H12        17.7980    7.3183  -18.2502 H         1 GTG         0.0647
     65 H13        17.4817    5.0715  -16.5383 H         1 GTG         0.2100
     66 H14        19.3464    8.1611  -16.7038 H         1 GTG         0.0655
     67 H15        18.8053    5.8255  -15.1493 H         1 GTG         0.2100
     68 H16        20.3112    5.2699  -16.8885 H         1 GTG         0.0758
     69 H17        18.5894    6.8874  -27.6315 H         1 GTG         0.0648
     70 H18        20.2665    6.6107  -28.2124 H         1 GTG         0.0648
     71 H19        19.7989    9.1681  -26.6832 H         1 GTG         0.0651
     72 H20        18.1714    8.6342  -29.0330 H         1 GTG         0.0648
     73 H21        17.9649   10.9602  -28.5225 H         1 GTG         0.2100
     74 H22        19.5791    9.1066  -30.7600 H         1 GTG         0.0677
     75 H23        19.5127   11.6879  -29.5156 H         1 GTG         0.2101
     76 H24        21.7009   10.6715  -29.1694 H         1 GTG         0.1021
     77 H25        22.1356    7.2664  -30.9064 H         1 GTG         0.1823
     78 H26        21.9094   12.3681  -35.1062 H         1 GTG         0.1819
     79 H27        21.0739   14.2252  -32.1373 H         1 GTG         0.1774
     80 H28        21.3698   14.3284  -33.8936 H         1 GTG         0.1774
     81 H29        21.2104   12.1795  -31.0631 H         1 GTG         0.2519
@<TRIPOS>BOND
     1    1    2 ar 
     2    1    3 ar 
     3    1    4 1  
     4   21    1 1  
     5    4    5 1  
     6    5    6 ar 
     7    5    7 ar 
     8    5    8 1  
     9    8   30 1  
    10    9   10 2  
    11    9   20 1  
    12   29    9 1  
    13   10   11 1  
    14   11   12 1  
    15   13   11 1  
    16   13   14 1  
    17   20   13 2  
    18   14   15 2  
    19   14   16 am 
    20   17   16 ar 
    21   17   18 ar 
    22   19   17 ar 
    23   20   19 1  
    24   22   21 1  
    25   23   22 1  
    26   24   23 1  
    27   23   25 1  
    28   24   29 1  
    29   25   26 1  
    30   25   27 1  
    31   27   28 1  
    32   27   29 1  
    33   30   31 ar 
    34   30   32 ar 
    35   30   33 1  
    36   33   34 1  
    37   34   35 1  
    38   35   36 1  
    39   35   37 1  
    40   36   41 1  
    41   37   38 1  
    42   37   39 1  
    43   39   40 1  
    44   39   41 1  
    45   41   42 1  
    46   42   43 1  
    47   42   52 1  
    48   43   44 2  
    49   44   45 1  
    50   45   46 1  
    51   45   52 2  
    52   46   47 2  
    53   46   48 am 
    54   48   49 ar 
    55   49   50 ar 
    56   49   51 ar 
    57   51   52 1  
    58   10   53 1  
    59   12   54 1  
    60   12   55 1  
    61   12   56 1  
    62   16   57 1  
    63   18   58 1  
    64   18   59 1  
    65   19   60 1  
    66   22   61 1  
    67   22   62 1  
    68   23   63 1  
    69   25   64 1  
    70   26   65 1  
    71   27   66 1  
    72   28   67 1  
    73   29   68 1  
    74   34   69 1  
    75   34   70 1  
    76   35   71 1  
    77   37   72 1  
    78   38   73 1  
    79   39   74 1  
    80   40   75 1  
    81   41   76 1  
    82   43   77 1  
    83   48   78 1  
    84   50   79 1  
    85   50   80 1  
    86   51   81 1  
@<TRIPOS>SUBSTRUCTURE
     1 GTG         1

