### 
### Created by X-TOOL on Fri Sep 26 17:34:52 2014
### 

@<TRIPOS>MOLECULE
3qyy_ligand
   70    76     1     0     0
SMALL
GAST_HUCK


@<TRIPOS>ATOM
      1 P1         66.7230   25.1930   44.4860 P.3       1 C2E         0.2557
      2 O2P        66.2450   24.9050   45.8830 O.co2     1 C2E        -0.6177
      3 O1P        65.6480   25.3720   43.4520 O.co2     1 C2E        -0.6177
      4 O5'        67.5990   26.5080   44.4360 O.3       1 C2E        -0.2514
      5 C5'        68.1470   26.9600   43.1810 C.3       1 C2E         0.1128
      6 C4'        68.9550   28.2170   43.4860 C.3       1 C2E         0.1243
      7 O4'        68.2450   29.2580   44.1340 O.3       1 C2E        -0.3343
      8 C3'        70.1490   27.9170   44.3890 C.3       1 C2E         0.1541
      9 O3'        71.2480   27.4100   43.6300 O.3       1 C2E        -0.2453
     10 C2'        70.3720   29.2500   45.0300 C.3       1 C2E         0.1461
     11 O2'        71.2830   29.9990   44.2080 O.3       1 C2E        -0.3831
     12 C1'        69.0220   29.9440   45.1130 C.3       1 C2E         0.2222
     13 N9         68.4190   29.7450   46.4570 N.pl3     1 C2E        -0.0954
     14 C8         67.3260   29.0080   46.7500 C.2       1 C2E         0.1855
     15 N7         67.0370   29.0510   48.0670 N.2       1 C2E        -0.1929
     16 C5         67.9450   29.8310   48.6430 C.2       1 C2E         0.2558
     17 C6         68.2160   30.3130   50.0220 C.2       1 C2E         0.2628
     18 O6         67.4710   29.9700   50.9730 O.2       1 C2E        -0.3594
     19 N1         69.2770   31.1350   50.2260 N.am      1 C2E        -0.2478
     20 C2         70.0970   31.5280   49.2140 C.cat     1 C2E         0.2041
     21 N2         71.1320   32.3460   49.4850 N.pl3     1 C2E        -0.3327
     22 N3         69.9040   31.1150   47.9110 N.pl3     1 C2E        -0.1901
     23 C4         68.8640   30.2850   47.5820 C.2       1 C2E         0.3268
     24 P11        72.1450   26.3440   44.4360 P.3       1 C2E         0.2557
     25 O21        72.6260   26.9380   45.7190 O.co2     1 C2E        -0.6177
     26 O11        73.2460   26.0000   43.4950 O.co2     1 C2E        -0.6177
     27 O5A        71.2940   25.0510   44.7360 O.3       1 C2E        -0.2514
     28 C5A        70.7590   24.3230   43.6300 C.3       1 C2E         0.1128
     29 C4A        69.9580   23.1570   44.1230 C.3       1 C2E         0.1243
     30 O4A        70.6760   22.2850   45.0380 O.3       1 C2E        -0.3343
     31 C3A        68.6810   23.5510   44.8640 C.3       1 C2E         0.1541
     32 O3A        67.6180   23.9370   43.9700 O.3       1 C2E        -0.2453
     33 C2A        68.4010   22.2960   45.6320 C.3       1 C2E         0.1461
     34 O2A        67.6190   21.4150   44.8080 O.3       1 C2E        -0.3831
     35 C1A        69.7570   21.6980   45.9680 C.3       1 C2E         0.2222
     36 N91        70.1000   21.9680   47.3830 N.pl3     1 C2E        -0.0954
     37 C81        70.7470   23.0380   47.9080 C.2       1 C2E         0.1855
     38 N71        70.8700   22.9190   49.2520 N.2       1 C2E        -0.1929
     39 C51        70.2950   21.7560   49.6040 C.2       1 C2E         0.2558
     40 C61        70.0610   20.9930   50.8620 C.2       1 C2E         0.2628
     41 O61        70.4460   21.4190   51.9650 O.2       1 C2E        -0.3594
     42 N11        69.4090   19.8000   50.7850 N.am      1 C2E        -0.2478
     43 C21        68.9650   19.2810   49.5980 C.cat     1 C2E         0.2041
     44 N21        68.3210   18.0870   49.5930 N.pl3     1 C2E        -0.3327
     45 N31        69.1510   19.9340   48.4130 N.pl3     1 C2E        -0.1901
     46 C41        69.7960   21.1480   48.3650 C.2       1 C2E         0.3268
     47 H1         67.3365   27.1920   42.4745 H         1 C2E         0.0647
     48 H2         68.7984   26.1853   42.7503 H         1 C2E         0.0647
     49 H3         69.3237   28.6017   42.5237 H         1 C2E         0.0655
     50 H4         69.8868   27.1708   45.1535 H         1 C2E         0.0712
     51 H5         70.7944   29.1273   46.0382 H         1 C2E         0.0681
     52 H6         72.1054   29.5284   44.1388 H         1 C2E         0.2102
     53 H7         69.1050   31.0175   44.8878 H         1 C2E         0.1022
     54 H8         66.7496   28.4486   46.0146 H         1 C2E         0.1823
     55 H9         69.4623   31.4630   51.1523 H         1 C2E         0.1819
     56 H10        71.7598   32.6505   48.7274 H         1 C2E         0.1774
     57 H11        71.2957   32.6671   50.4499 H         1 C2E         0.1774
     58 H12        70.5505   31.4350   47.1758 H         1 C2E         0.2519
     59 H13        71.5841   23.9580   43.0008 H         1 C2E         0.0647
     60 H14        70.1111   24.9853   43.0372 H         1 C2E         0.0647
     61 H15        69.6769   22.5707   43.2358 H         1 C2E         0.0655
     62 H16        68.8724   24.3880   45.5516 H         1 C2E         0.0712
     63 H17        67.8488   22.5214   46.5563 H         1 C2E         0.0681
     64 H18        66.8020   21.8413   44.5770 H         1 C2E         0.2102
     65 H19        69.7342   20.6085   45.8184 H         1 C2E         0.1022
     66 H20        71.1183   23.8807   47.3267 H         1 C2E         0.1823
     67 H21        69.2485   19.2838   51.6263 H         1 C2E         0.1819
     68 H22        67.9831   17.6878   48.7057 H         1 C2E         0.1774
     69 H23        68.1700   17.5796   50.4765 H         1 C2E         0.1774
     70 H24        68.8026   19.5106   47.5411 H         1 C2E         0.2519
@<TRIPOS>BOND
     1    1    2 ar 
     2    1    3 ar 
     3    1    4 1  
     4    1   32 1  
     5    4    5 1  
     6    5    6 1  
     7    6    7 1  
     8    6    8 1  
     9    7   12 1  
    10    8    9 1  
    11    8   10 1  
    12    9   24 1  
    13   10   11 1  
    14   10   12 1  
    15   12   13 1  
    16   13   14 1  
    17   13   23 1  
    18   14   15 2  
    19   15   16 1  
    20   16   17 1  
    21   16   23 2  
    22   17   18 2  
    23   17   19 am 
    24   19   20 ar 
    25   20   21 ar 
    26   20   22 ar 
    27   22   23 1  
    28   24   25 ar 
    29   24   26 ar 
    30   24   27 1  
    31   27   28 1  
    32   28   29 1  
    33   29   30 1  
    34   29   31 1  
    35   30   35 1  
    36   31   32 1  
    37   31   33 1  
    38   33   34 1  
    39   33   35 1  
    40   35   36 1  
    41   36   37 1  
    42   36   46 1  
    43   37   38 2  
    44   38   39 1  
    45   39   40 1  
    46   39   46 2  
    47   40   41 2  
    48   40   42 am 
    49   42   43 ar 
    50   43   44 ar 
    51   43   45 ar 
    52   45   46 1  
    53    5   47 1  
    54    5   48 1  
    55    6   49 1  
    56    8   50 1  
    57   10   51 1  
    58   11   52 1  
    59   12   53 1  
    60   14   54 1  
    61   19   55 1  
    62   21   56 1  
    63   21   57 1  
    64   22   58 1  
    65   28   59 1  
    66   28   60 1  
    67   29   61 1  
    68   31   62 1  
    69   33   63 1  
    70   34   64 1  
    71   35   65 1  
    72   37   66 1  
    73   42   67 1  
    74   44   68 1  
    75   44   69 1  
    76   45   70 1  
@<TRIPOS>SUBSTRUCTURE
     1 C2E         1

