### 
### Created by X-TOOL on Fri Sep 26 17:34:50 2014
### 

@<TRIPOS>MOLECULE
3rl4_ligand
   37    39     1     0     0
SMALL
GAST_HUCK


@<TRIPOS>ATOM
      1 P         -23.8720   11.3580    7.3000 P.3       1 MOL         0.2008
      2 O1P       -22.5070   10.8010    7.3830 O.co2     1 MOL        -0.5537
      3 O2P       -24.5900   11.6000    8.7310 O.co2     1 MOL        -0.5537
      4 O3P       -23.8350   12.7720    6.6230 O.co2     1 MOL        -0.5537
      5 O5'       -24.8120   10.4050    6.4280 O.3       1 MOL        -0.2734
      6 C5'       -26.2020   10.7260    6.2020 C.3       1 MOL         0.1072
      7 C4'       -26.7620    9.9250    5.0380 C.3       1 MOL         0.1183
      8 O4'       -25.9290   10.2050    3.8950 O.3       1 MOL        -0.3347
      9 C3'       -26.6680    8.4100    5.1630 C.3       1 MOL         0.1150
     10 O3'       -27.7260    7.8970    5.9960 O.3       1 MOL        -0.3864
     11 C2'       -26.8170    8.0000    3.7000 C.3       1 MOL         0.1407
     12 O2'       -28.1760    8.1370    3.2580 O.3       1 MOL        -0.3835
     13 C1'       -25.9810    9.0850    3.0010 C.3       1 MOL         0.2218
     14 N9        -24.5990    8.5730    2.7710 N.pl3     1 MOL        -0.0954
     15 C8        -23.5650    8.5240    3.6310 C.2       1 MOL         0.1855
     16 N7        -22.5220    7.9690    3.0240 N.2       1 MOL        -0.1929
     17 C5        -22.8840    7.6490    1.7830 C.2       1 MOL         0.2558
     18 C6        -22.2280    7.0490    0.7110 C.2       1 MOL         0.2628
     19 O6        -21.0520    6.6800    0.7570 O.2       1 MOL        -0.3594
     20 N1        -22.9310    6.8800   -0.4720 N.am      1 MOL        -0.2478
     21 C2        -24.2680    7.2830   -0.5740 C.cat     1 MOL         0.2041
     22 N2        -24.9130    7.0980   -1.7200 N.pl3     1 MOL        -0.3327
     23 N3        -24.8830    7.8600    0.4690 N.pl3     1 MOL        -0.1901
     24 C4        -24.2100    8.0350    1.6260 C.2       1 MOL         0.3268
     25 H1        -26.2917   11.7990    5.9769 H         1 MOL         0.0639
     26 H2        -26.7777   10.4924    7.1097 H         1 MOL         0.0639
     27 H3        -27.8068   10.2225    4.8651 H         1 MOL         0.0650
     28 H4        -25.6967    8.0936    5.5710 H         1 MOL         0.0648
     29 H5        -28.5660    8.1211    5.6130 H         1 MOL         0.2100
     30 H6        -26.4433    6.9826    3.5121 H         1 MOL         0.0677
     31 H7        -28.7374    7.5826    3.7873 H         1 MOL         0.2101
     32 H8        -26.4416    9.3732    2.0446 H         1 MOL         0.1021
     33 H9        -23.5809    8.8819    4.6594 H         1 MOL         0.1823
     34 H10       -22.4780    6.4656   -1.2613 H         1 MOL         0.1819
     35 H11       -25.8968    7.3893   -1.8101 H         1 MOL         0.1774
     36 H12       -24.4294    6.6632   -2.5188 H         1 MOL         0.1774
     37 H13       -25.8626    8.1676    0.3876 H         1 MOL         0.2519
@<TRIPOS>BOND
     1    1    2 ar 
     2    1    3 ar 
     3    1    4 ar 
     4    1    5 1  
     5    5    6 1  
     6    6    7 1  
     7    7    8 1  
     8    7    9 1  
     9    8   13 1  
    10    9   10 1  
    11    9   11 1  
    12   11   12 1  
    13   11   13 1  
    14   13   14 1  
    15   14   15 1  
    16   14   24 1  
    17   15   16 2  
    18   16   17 1  
    19   17   18 1  
    20   17   24 2  
    21   18   19 2  
    22   18   20 am 
    23   20   21 ar 
    24   21   22 ar 
    25   21   23 ar 
    26   23   24 1  
    27    6   25 1  
    28    6   26 1  
    29    7   27 1  
    30    9   28 1  
    31   10   29 1  
    32   11   30 1  
    33   12   31 1  
    34   13   32 1  
    35   15   33 1  
    36   20   34 1  
    37   22   35 1  
    38   22   36 1  
    39   23   37 1  
@<TRIPOS>SUBSTRUCTURE
     1 MOL         1

