### 
### Created by X-TOOL on Fri Sep 26 17:35:01 2014
### 

@<TRIPOS>MOLECULE
3zju_ligand
   63    67     1     0     0
SMALL
GAST_HUCK


@<TRIPOS>ATOM
      1 B          28.6260   27.8430   33.2230 B         1 DJF         3.0000
      2 P          22.0150   27.5550   32.4090 P.3       1 DJF         0.1064
      3 N1         24.2560   34.3610   29.2690 N.ar      1 DJF        -0.2698
      4 O1         29.5940   28.5610   34.1650 O.3       1 DJF        -0.3827
      5 C2         24.8360   33.3630   28.5630 C.ar      1 DJF         0.0533
      6 N3         25.3400   32.2810   29.1700 N.ar      1 DJF        -0.2714
      7 C4         25.2690   32.1450   30.5270 C.ar      1 DJF         0.1613
      8 C5         24.6410   33.1360   31.2530 C.ar      1 DJF         0.1045
      9 C6         24.1430   34.2720   30.6040 C.ar      1 DJF         0.1298
     10 N6         23.5220   35.2810   31.2830 N.pl3     1 DJF        -0.3152
     11 N7         24.6950   32.7620   32.5300 N.2       1 DJF        -0.2958
     12 C8         25.3340   31.5630   32.6170 C.2       1 DJF         0.1123
     13 N9         25.6630   31.1740   31.3890 N.pl3     1 DJF        -0.1919
     14 C1'        26.4690   29.9690   31.0870 C.3       1 DJF         0.2010
     15 C10        30.8820   27.9160   34.2490 C.3       1 DJF         0.0757
     16 C11        30.6880   26.6960   33.3710 C.ar      1 DJF        -0.0267
     17 C12        29.4340   26.6450   32.7970 C.ar      1 DJF        -0.0301
     18 C13        31.6490   25.6950   33.1720 C.ar      1 DJF        -0.0692
     19 C14        31.3220   24.5960   32.3660 C.ar      1 DJF        -0.0771
     20 C15        30.0500   24.5230   31.7780 C.ar      1 DJF        -0.0401
     21 C16        29.0820   25.5370   32.0040 C.ar      1 DJF         0.0845
     22 O17        27.8600   25.3830   31.3970 O.3       1 DJF        -0.3197
     23 C18        27.7580   24.3310   30.4170 C.3       1 DJF         0.0723
     24 C19        26.3120   23.9850   30.1000 C.3       1 DJF        -0.0018
     25 C2'        27.1780   29.5810   32.3790 C.3       1 DJF         0.1385
     26 O2'        28.3950   28.9120   32.1380 O.3       1 DJF        -0.3836
     27 C20        25.6900   25.0520   29.2060 C.3       1 DJF         0.0467
     28 O21        24.2930   25.1170   29.5060 O.3       1 DJF        -0.3949
     29 C3'        26.3920   28.4430   32.9640 C.3       1 DJF         0.1150
     30 O3'        27.3630   27.6260   33.6070 O.3       1 DJF        -0.3864
     31 C4'        25.8750   27.8030   31.6790 C.3       1 DJF         0.1190
     32 O4'        25.7070   28.8490   30.7060 O.3       1 DJF        -0.3364
     33 C5'        24.5430   27.0990   31.8700 C.3       1 DJF         0.1104
     34 O5'        23.5290   28.0490   32.1870 O.3       1 DJF        -0.2803
     35 OP1        21.7590   26.1730   31.8830 O.co2     1 DJF        -0.6222
     36 OP2        21.6860   27.8760   33.8400 O.co2     1 DJF        -0.6222
     37 H1         21.4236   28.1502   31.8505 H         1 DJF         0.1780
     38 H2         29.4098   28.7811   33.2594 H         1 DJF         0.2126
     39 H3         24.8939   33.4410   27.4834 H         1 DJF         0.0996
     40 H4         23.4262   35.2298   32.3073 H         1 DJF         0.1820
     41 H5         23.1494   36.0933   30.7709 H         1 DJF         0.1820
     42 H6         25.5404   31.0159   33.5357 H         1 DJF         0.1349
     43 H7         27.1950   30.2049   30.2950 H         1 DJF         0.0996
     44 H8         31.1172   27.6286   35.2844 H         1 DJF         0.0720
     45 H9         31.6793   28.5654   33.8585 H         1 DJF         0.0720
     46 H10        28.7267   27.4510   32.9555 H         1 DJF         0.0479
     47 H11        32.6272   25.7696   33.6331 H         1 DJF         0.0465
     48 H12        32.0468   23.8077   32.1980 H         1 DJF         0.0572
     49 H13        29.8028   23.6805   31.1422 H         1 DJF         0.0486
     50 H14        28.2606   23.4333   30.8062 H         1 DJF         0.0614
     51 H15        28.2557   24.6580   29.4921 H         1 DJF         0.0614
     52 H16        25.7412   23.9214   31.0381 H         1 DJF         0.0313
     53 H17        26.2771   23.0147   29.5831 H         1 DJF         0.0313
     54 H18        27.2902   30.4438   33.0520 H         1 DJF         0.0676
     55 H19        28.8022   28.6893   32.9669 H         1 DJF         0.2101
     56 H20        25.8331   24.7838   28.1489 H         1 DJF         0.0558
     57 H21        26.1605   26.0264   29.4041 H         1 DJF         0.0558
     58 H22        23.8833   25.7771   28.9594 H         1 DJF         0.2094
     59 H23        25.5868   28.7463   33.6493 H         1 DJF         0.0648
     60 H24        27.9965   27.3251   32.9662 H         1 DJF         0.2100
     61 H25        26.6147   27.0728   31.3189 H         1 DJF         0.0651
     62 H26        24.6300   26.3719   32.6908 H         1 DJF         0.0650
     63 H27        24.2725   26.5739   30.9421 H         1 DJF         0.0650
@<TRIPOS>BOND
     1    1    4 1  
     2    1   17 1  
     3   30    1 1  
     4   34    2 1  
     5    2   35 ar 
     6    2   36 ar 
     7    5    3 ar 
     8    9    3 ar 
     9    4   15 1  
    10    6    5 ar 
    11    7    6 ar 
    12    7    8 ar 
    13   13    7 1  
    14    8    9 ar 
    15   11    8 1  
    16    9   10 1  
    17   12   11 2  
    18   13   12 1  
    19   14   13 1  
    20   14   25 1  
    21   32   14 1  
    22   16   15 1  
    23   17   16 ar 
    24   16   18 ar 
    25   17   21 ar 
    26   18   19 ar 
    27   20   19 ar 
    28   21   20 ar 
    29   21   22 1  
    30   22   23 1  
    31   23   24 1  
    32   24   27 1  
    33   25   26 1  
    34   29   25 1  
    35   27   28 1  
    36   29   30 1  
    37   31   29 1  
    38   31   32 1  
    39   33   31 1  
    40   33   34 1  
    41    2   37 1  
    42    4   38 1  
    43    5   39 1  
    44   10   40 1  
    45   10   41 1  
    46   12   42 1  
    47   14   43 1  
    48   15   44 1  
    49   15   45 1  
    50   17   46 1  
    51   18   47 1  
    52   19   48 1  
    53   20   49 1  
    54   23   50 1  
    55   23   51 1  
    56   24   52 1  
    57   24   53 1  
    58   25   54 1  
    59   26   55 1  
    60   27   56 1  
    61   27   57 1  
    62   28   58 1  
    63   29   59 1  
    64   30   60 1  
    65   31   61 1  
    66   33   62 1  
    67   33   63 1  
@<TRIPOS>SUBSTRUCTURE
     1 DJF         1

