### 
### Created by X-TOOL on Fri Sep 26 17:34:55 2014
### 

@<TRIPOS>MOLECULE
4dcv_ligand
   47    49     1     0     0
SMALL
GAST_HUCK


@<TRIPOS>ATOM
      1 PG        -14.4520   -6.9930  -32.8920 P.3       1 GCP         0.0781
      2 O1G       -13.7440   -6.6470  -34.1920 O.co2     1 GCP        -0.5611
      3 O2G       -13.5410   -7.5580  -31.8150 O.co2     1 GCP        -0.5611
      4 O3G       -15.3480   -5.8940  -32.3530 O.co2     1 GCP        -0.5611
      5 C3B       -15.5870   -8.3570  -33.3090 C.3       1 GCP         0.1130
      6 PB        -14.7540   -9.9460  -33.6170 P.3       1 GCP         0.1787
      7 O1B       -13.5470   -9.6980  -34.4780 O.co2     1 GCP        -0.6143
      8 O2B       -14.5950  -10.7120  -32.3130 O.co2     1 GCP        -0.6143
      9 O3A       -15.7750  -10.8190  -34.4910 O.3       1 GCP        -0.1584
     10 PA        -17.0930  -11.4150  -33.7770 P.3       1 GCP         0.2952
     11 O1A       -16.7030  -12.6250  -32.9650 O.co2     1 GCP        -0.6125
     12 O2A       -17.7730  -10.2480  -33.1140 O.co2     1 GCP        -0.6125
     13 O5'       -17.9400  -11.8430  -35.0700 O.3       1 GCP        -0.2475
     14 C5'       -18.2080  -10.8740  -36.0880 C.3       1 GCP         0.1128
     15 C4'       -19.3340  -11.3690  -36.9860 C.3       1 GCP         0.1190
     16 O4'       -18.8900  -12.4730  -37.7900 O.3       1 GCP        -0.3347
     17 C3'       -20.5290  -11.8840  -36.2190 C.3       1 GCP         0.1151
     18 O3'       -21.6780  -11.5210  -36.9930 O.3       1 GCP        -0.3864
     19 C2'       -20.3650  -13.3930  -36.2550 C.3       1 GCP         0.1407
     20 O2'       -21.6200  -14.0620  -36.1760 O.3       1 GCP        -0.3835
     21 C1'       -19.7070  -13.6330  -37.6010 C.3       1 GCP         0.2218
     22 N9        -18.8490  -14.8340  -37.5840 N.pl3     1 GCP        -0.0954
     23 C8        -17.9010  -15.0980  -36.6600 C.2       1 GCP         0.1855
     24 N7        -17.2730  -16.2720  -36.9190 N.2       1 GCP        -0.1929
     25 C5        -17.8200  -16.7820  -38.0400 C.2       1 GCP         0.2558
     26 C6        -17.6230  -17.9970  -38.8770 C.2       1 GCP         0.2628
     27 O6        -16.7750  -18.8650  -38.5930 O.2       1 GCP        -0.3594
     28 N1        -18.3810  -18.1600  -39.9630 N.am      1 GCP        -0.2478
     29 C2        -19.3130  -17.2600  -40.3230 C.cat     1 GCP         0.2041
     30 N2        -20.0200  -17.5270  -41.4500 N.pl3     1 GCP        -0.3327
     31 N3        -19.5520  -16.1210  -39.6050 N.pl3     1 GCP        -0.1901
     32 C4        -18.8540  -15.8260  -38.4810 C.2       1 GCP         0.3268
     33 H         -16.1026   -8.0789  -34.2282 H         1 GCP         0.0680
     34 H         -16.2489   -8.4993  -32.4547 H         1 GCP         0.0680
     35 H         -17.3098  -10.7214  -36.6864 H         1 GCP         0.0648
     36 H         -18.5045   -9.9341  -35.6224 H         1 GCP         0.0648
     37 H         -19.6187  -10.5010  -37.5807 H         1 GCP         0.0651
     38 H         -20.6210  -11.5047  -35.2013 H         1 GCP         0.0648
     39 H         -22.4718  -11.8265  -36.5479 H         1 GCP         0.2100
     40 H         -19.7865  -13.7742  -35.4135 H         1 GCP         0.0677
     41 H         -22.1686  -13.7996  -36.9188 H         1 GCP         0.2101
     42 H         -20.4444  -13.7920  -38.3878 H         1 GCP         0.1021
     43 H         -17.6698  -14.4506  -35.8141 H         1 GCP         0.1823
     44 H         -18.2495  -18.9925  -40.5375 H         1 GCP         0.1819
     45 H         -19.8325  -18.3781  -41.9800 H         1 GCP         0.1774
     46 H         -20.7389  -16.8766  -41.7671 H         1 GCP         0.1774
     47 H         -20.2750  -15.4760  -39.9238 H         1 GCP         0.2519
@<TRIPOS>BOND
     1    1    2 ar 
     2    1    3 ar 
     3    1    4 ar 
     4    1    5 1  
     5    5    6 1  
     6    6    7 ar 
     7    6    8 ar 
     8    6    9 1  
     9    9   10 1  
    10   10   11 ar 
    11   10   12 ar 
    12   10   13 1  
    13   13   14 1  
    14   14   15 1  
    15   15   16 1  
    16   15   17 1  
    17   16   21 1  
    18   17   18 1  
    19   17   19 1  
    20   19   20 1  
    21   19   21 1  
    22   21   22 1  
    23   22   23 1  
    24   22   32 1  
    25   23   24 2  
    26   24   25 1  
    27   25   26 1  
    28   25   32 2  
    29   26   27 2  
    30   26   28 am 
    31   28   29 ar 
    32   29   30 ar 
    33   29   31 ar 
    34   31   32 1  
    35    5   33 1  
    36    5   34 1  
    37   14   35 1  
    38   14   36 1  
    39   15   37 1  
    40   17   38 1  
    41   18   39 1  
    42   19   40 1  
    43   20   41 1  
    44   21   42 1  
    45   23   43 1  
    46   28   44 1  
    47   30   45 1  
    48   30   46 1  
    49   31   47 1  
@<TRIPOS>SUBSTRUCTURE
     1 GCP         1

