### 
### Created by X-TOOL on Sat Nov 28 16:08:30 2015
### 

@<TRIPOS>MOLECULE
4otw_ligand
   67    70     1     0     0
SMALL
GAST_HUCK


@<TRIPOS>ATOM
      1 CAA        52.3460   16.6720   13.4320 C.3       1 DB8         0.0581
      2 O02        43.5550   15.7290   12.9300 O.3       1 DB8        -0.3228
      3 CAC        55.7940   12.2450   14.4800 C.3       1 DB8        -0.0290
      4 NAD        45.1830   13.2320   10.0440 N.1       1 DB8        -0.3470
      5 CL1        42.4940   17.3990   10.7660 Cl        1 DB8        -0.0883
      6 CL2        47.5950   17.1090    8.8180 Cl        1 DB8        -0.0884
      7 CAG        46.2150   13.0640   10.5250 C.1       1 DB8         0.0848
      8 CAH        47.9450   11.5470   11.4260 C.ar      1 DB8         0.0167
      9 CAI        45.0860   17.1930    9.8860 C.ar      1 DB8        -0.0510
     10 CAJ        45.8060   15.5920   12.0920 C.ar      1 DB8        -0.0078
     11 CAK        51.2310   11.9450   12.8660 C.ar      1 DB8        -0.0186
     12 CAL        50.5740   14.6630   12.3850 C.ar      1 DB8        -0.0192
     13 CAM        55.2960   11.2030   13.4990 C.3       1 DB8         0.0154
     14 CAN        53.7670   11.2520   13.4960 C.3       1 DB8         0.0758
     15 CAO        59.0050   10.4750   17.9090 C.3       1 DB8        -0.0427
     16 CAP        56.5930   11.9950   16.9600 C.3       1 DB8         0.0094
     17 CAQ        57.5090   10.5550   15.1910 C.3       1 DB8         0.0094
     18 CAR        57.9430   12.5810   17.1600 C.3       1 DB8         0.0092
     19 CAS        58.8900   11.0950   15.4910 C.3       1 DB8         0.0092
     20 NAT        49.1370   11.2750   11.9750 N.ar      1 DB8        -0.3220
     21 NAU        48.1160   15.4050   11.2450 N.pl3     1 DB8        -0.2555
     22 OAV        52.7190   15.3370   13.2980 O.3       1 DB8        -0.3205
     23 OAW        53.3310   12.5720   13.7600 O.3       1 DB8        -0.3133
     24 CAX        44.4960   16.0600   11.9580 C.ar      1 DB8         0.0967
     25 CAY        44.1430   16.8550   10.8680 C.ar      1 DB8         0.0570
     26 CAZ        46.3990   16.7190   10.0090 C.ar      1 DB8         0.0530
     27 CBA        47.5490   12.8790   11.1540 C.ar      1 DB8         0.1345
     28 CBB        46.7470   15.9230   11.1090 C.ar      1 DB8         0.0731
     29 CBC        51.8090   14.3330   12.9600 C.ar      1 DB8         0.1307
     30 CBD        52.1120   12.9720   13.1880 C.ar      1 DB8         0.1315
     31 CBE        48.4160   13.9710   11.4700 C.ar      1 DB8         0.1193
     32 CBF        49.9960   12.2600   12.2880 C.ar      1 DB8         0.0210
     33 CBG        49.6850   13.6330   12.0560 C.ar      1 DB8         0.0290
     34 NBH        56.4770   11.5150   15.5830 N.4       1 DB8         0.2428
     35 NBI        58.8980   11.5270   16.8880 N.4       1 DB8         0.2405
     36 C01        43.8000   14.6470   13.7650 C.3       1 DB8         0.0595
     37 H          53.2267   17.2735   13.7014 H         1 DB8         0.0575
     38 H          51.5849   16.7627   14.2210 H         1 DB8         0.0575
     39 H          51.9319   17.0344   12.4796 H         1 DB8         0.0575
     40 H          54.9476   12.8240   14.8779 H         1 DB8         0.0815
     41 H          56.5014   12.9245   13.9823 H         1 DB8         0.0815
     42 H          47.2716   10.7322   11.1857 H         1 DB8         0.0842
     43 H          44.8027   17.8128    9.0430 H         1 DB8         0.0576
     44 H          46.0891   14.9828   12.9428 H         1 DB8         0.0462
     45 H          51.4979   10.9125   13.0605 H         1 DB8         0.0495
     46 H          50.3118   15.6981   12.1983 H         1 DB8         0.0544
     47 H          55.6372   10.2044   13.8094 H         1 DB8         0.0343
     48 H          55.6789   11.4248   12.4919 H         1 DB8         0.0343
     49 H          53.3781   10.5765   14.2722 H         1 DB8         0.0617
     50 H          53.3930   10.9335   12.5118 H         1 DB8         0.0617
     51 H          58.9997   10.9329   18.9092 H         1 DB8         0.0778
     52 H          59.9430    9.9187   17.7654 H         1 DB8         0.0778
     53 H          58.1523    9.7862   17.8166 H         1 DB8         0.0778
     54 H          55.8273   12.7620   17.1481 H         1 DB8         0.0868
     55 H          56.4495   11.1552   17.6558 H         1 DB8         0.0868
     56 H          57.3597    9.6182   15.7479 H         1 DB8         0.0868
     57 H          57.4260   10.3574   14.1121 H         1 DB8         0.0868
     58 H          58.0533   12.9345   18.1958 H         1 DB8         0.0868
     59 H          58.0981   13.4212   16.4672 H         1 DB8         0.0868
     60 H          59.1111   11.9481   14.8327 H         1 DB8         0.0868
     61 H          59.6429   10.3080   15.3368 H         1 DB8         0.0868
     62 H          48.9017   16.0680   11.1811 H         1 DB8         0.2218
     63 H          55.7307   10.8594   15.7541 H         1 DB8         0.2038
     64 H          59.7854   11.9977   16.9717 H         1 DB8         0.2035
     65 H          42.9614   14.5283   14.4670 H         1 DB8         0.0578
     66 H          44.7282   14.8217   14.3288 H         1 DB8         0.0578
     67 H          43.9044   13.7338   13.1608 H         1 DB8         0.0578
@<TRIPOS>BOND
     1   22    1 1  
     2   24    2 1  
     3    2   36 1  
     4   13    3 1  
     5    3   34 1  
     6    7    4 3  
     7   25    5 1  
     8   26    6 1  
     9   27    7 1  
    10   20    8 ar 
    11    8   27 ar 
    12    9   25 ar 
    13   26    9 ar 
    14   10   24 ar 
    15   28   10 ar 
    16   30   11 ar 
    17   11   32 ar 
    18   29   12 ar 
    19   12   33 ar 
    20   14   13 1  
    21   23   14 1  
    22   35   15 1  
    23   16   18 1  
    24   34   16 1  
    25   17   19 1  
    26   34   17 1  
    27   18   35 1  
    28   19   35 1  
    29   32   20 ar 
    30   21   28 1  
    31   31   21 1  
    32   29   22 1  
    33   30   23 1  
    34   24   25 ar 
    35   28   26 ar 
    36   27   31 ar 
    37   29   30 ar 
    38   31   33 ar 
    39   32   33 ar 
    40    1   37 1  
    41    1   38 1  
    42    1   39 1  
    43    3   40 1  
    44    3   41 1  
    45    8   42 1  
    46    9   43 1  
    47   10   44 1  
    48   11   45 1  
    49   12   46 1  
    50   13   47 1  
    51   13   48 1  
    52   14   49 1  
    53   14   50 1  
    54   15   51 1  
    55   15   52 1  
    56   15   53 1  
    57   16   54 1  
    58   16   55 1  
    59   17   56 1  
    60   17   57 1  
    61   18   58 1  
    62   18   59 1  
    63   19   60 1  
    64   19   61 1  
    65   21   62 1  
    66   34   63 1  
    67   35   64 1  
    68   36   65 1  
    69   36   66 1  
    70   36   67 1  
@<TRIPOS>SUBSTRUCTURE
     1 DB8         1

