### 
### Created by X-TOOL on Sun Nov 13 14:28:43 2016
### 

@<TRIPOS>MOLECULE
4pde_ligand
   41    43     1     0     0
SMALL
GAST_HUCK


@<TRIPOS>ATOM
      1 PB        -26.7420   43.3840    7.8150 P.3       1 GDP         0.2069
      2 O1B       -27.2190   42.0930    7.1800 O.co2     1 GDP        -0.5891
      3 O2B       -26.5000   43.2070    9.2940 O.co2     1 GDP        -0.5891
      4 O3B       -27.8130   44.4330    7.6340 O.co2     1 GDP        -0.5891
      5 O3A       -25.3700   43.8810    7.1240 O.3       1 GDP        -0.1548
      6 PA        -25.3800   44.1000    5.5350 P.3       1 GDP         0.3276
      7 O1A       -24.0030   43.9410    4.9380 O.co2     1 GDP        -0.5556
      8 O2A       -26.3890   43.1750    4.8940 O.co2     1 GDP        -0.5556
      9 O5'       -25.8770   45.6150    5.3960 O.3       1 GDP        -0.2436
     10 C5'       -26.7930   45.8990    4.3550 C.3       1 GDP         0.1132
     11 C4'       -27.7010   47.0380    4.7600 C.3       1 GDP         0.1190
     12 O4'       -27.7400   47.9230    3.6500 O.3       1 GDP        -0.3347
     13 C3'       -29.1130   46.5410    5.0080 C.3       1 GDP         0.1151
     14 O3'       -29.5240   46.9170    6.3270 O.3       1 GDP        -0.3864
     15 C2'       -29.9860   47.2190    3.9700 C.3       1 GDP         0.1407
     16 O2'       -30.8810   48.1530    4.5800 O.3       1 GDP        -0.3835
     17 C1'       -29.0380   47.9820    3.0650 C.3       1 GDP         0.2218
     18 N9        -28.9840   47.3370    1.7290 N.pl3     1 GDP        -0.0954
     19 C8        -28.9130   46.0090    1.4920 C.2       1 GDP         0.1855
     20 N7        -28.8730   45.7430    0.1640 N.2       1 GDP        -0.1929
     21 C5        -28.9080   46.9290   -0.4690 C.2       1 GDP         0.2558
     22 C6        -28.8850   47.3730   -1.8740 C.2       1 GDP         0.2628
     23 O6        -28.8240   46.5510   -2.8130 O.2       1 GDP        -0.3594
     24 N1        -28.9350   48.6920   -2.0960 N.am      1 GDP        -0.2478
     25 C2        -28.9980   49.6130   -1.1170 C.cat     1 GDP         0.2041
     26 N2        -29.0400   50.9180   -1.4740 N.pl3     1 GDP        -0.3327
     27 N3        -29.0220   49.2840    0.1970 N.pl3     1 GDP        -0.1901
     28 C4        -28.9780   47.9800    0.5640 C.2       1 GDP         0.3268
     29 H1        -27.4000   45.0048    4.1501 H         1 GDP         0.0648
     30 H2        -26.2377   46.1809    3.4483 H         1 GDP         0.0648
     31 H3        -27.3123   47.5421    5.6571 H         1 GDP         0.0651
     32 H4        -29.1645   45.4477    4.8989 H         1 GDP         0.0648
     33 H5        -29.5014   47.8633    6.4068 H         1 GDP         0.2100
     34 H6        -30.5567   46.4707    3.4005 H         1 GDP         0.0677
     35 H7        -31.4408   47.6967    5.1972 H         1 GDP         0.2101
     36 H8        -29.3675   49.0267    2.9651 H         1 GDP         0.1021
     37 H9        -28.8907   45.2478    2.2705 H         1 GDP         0.1823
     38 H10       -28.9250   49.0113   -3.0436 H         1 GDP         0.1819
     39 H11       -29.0886   51.6487   -0.7497 H         1 GDP         0.1774
     40 H12       -29.0234   51.1803   -2.4699 H         1 GDP         0.1774
     41 H13       -29.0735   50.0217    0.9140 H         1 GDP         0.2519
@<TRIPOS>BOND
     1    1    2 ar 
     2    1    3 ar 
     3    1    4 ar 
     4    1    5 1  
     5    5    6 1  
     6    6    7 ar 
     7    6    8 ar 
     8    6    9 1  
     9    9   10 1  
    10   10   11 1  
    11   11   12 1  
    12   11   13 1  
    13   12   17 1  
    14   13   14 1  
    15   13   15 1  
    16   15   16 1  
    17   15   17 1  
    18   17   18 1  
    19   18   19 1  
    20   18   28 1  
    21   19   20 2  
    22   20   21 1  
    23   21   22 1  
    24   21   28 2  
    25   22   23 2  
    26   22   24 am 
    27   24   25 ar 
    28   25   26 ar 
    29   25   27 ar 
    30   27   28 1  
    31   10   29 1  
    32   10   30 1  
    33   11   31 1  
    34   13   32 1  
    35   14   33 1  
    36   15   34 1  
    37   16   35 1  
    38   17   36 1  
    39   19   37 1  
    40   24   38 1  
    41   26   39 1  
    42   26   40 1  
    43   27   41 1  
@<TRIPOS>SUBSTRUCTURE
     1 GDP         1

