### 
### Created by X-TOOL on Sun Nov 13 14:28:40 2016
### 

@<TRIPOS>MOLECULE
4rcg_ligand
   41    43     1     0     0
SMALL
GAST_HUCK


@<TRIPOS>ATOM
      1 PB        -16.5130  -14.3450  -33.0120 P.3       1 GDP         0.2069
      2 O1B       -16.9580  -13.7400  -31.7060 O.co2     1 GDP        -0.5891
      3 O2B       -17.3870  -14.1710  -34.2370 O.co2     1 GDP        -0.5891
      4 O3B       -16.0210  -15.7740  -32.9820 O.co2     1 GDP        -0.5891
      5 O3A       -15.2850  -13.5240  -33.5970 O.3       1 GDP        -0.1548
      6 PA        -14.1430  -12.7880  -32.7160 P.3       1 GDP         0.3276
      7 O1A       -14.5830  -11.3910  -32.3410 O.co2     1 GDP        -0.5556
      8 O2A       -13.4810  -13.6040  -31.6530 O.co2     1 GDP        -0.5556
      9 O5'       -13.2220  -12.6450  -34.0090 O.3       1 GDP        -0.2436
     10 C5'       -11.9690  -13.2270  -33.8300 C.3       1 GDP         0.1132
     11 C4'       -11.1420  -13.4300  -35.0880 C.3       1 GDP         0.1190
     12 O4'       -11.4880  -12.5920  -36.2110 O.3       1 GDP        -0.3347
     13 C3'        -9.7680  -12.9670  -34.6400 C.3       1 GDP         0.1151
     14 O3'        -8.7900  -13.7100  -35.3770 O.3       1 GDP        -0.3864
     15 C2'        -9.8790  -11.4710  -34.9620 C.3       1 GDP         0.1407
     16 O2'        -8.6290  -10.8310  -35.0820 O.3       1 GDP        -0.3835
     17 C1'       -10.5720  -11.4780  -36.3020 C.3       1 GDP         0.2218
     18 N9        -11.2430  -10.1870  -36.5210 N.pl3     1 GDP        -0.0954
     19 C8        -12.3070   -9.7150  -35.8300 C.2       1 GDP         0.1855
     20 N7        -12.7070   -8.5170  -36.3170 N.2       1 GDP        -0.1929
     21 C5        -11.8970   -8.2320  -37.3290 C.2       1 GDP         0.2558
     22 C6        -11.7610   -7.1290  -38.2570 C.2       1 GDP         0.2628
     23 O6        -12.5200   -6.1650  -38.2100 O.2       1 GDP        -0.3594
     24 N1        -10.8080   -7.1750  -39.1760 N.am      1 GDP        -0.2478
     25 C2         -9.9870   -8.2280  -39.2680 C.cat     1 GDP         0.2041
     26 N2         -9.0560   -8.2150  -40.2360 N.pl3     1 GDP        -0.3327
     27 N3        -10.0490   -9.2810  -38.4440 N.pl3     1 GDP        -0.1901
     28 C4        -10.9530   -9.3190  -37.4680 C.2       1 GDP         0.3268
     29 H1        -12.1191  -14.2119  -33.3637 H         1 GDP         0.0648
     30 H2        -11.3931  -12.5829  -33.1493 H         1 GDP         0.0648
     31 H3        -11.1555  -14.4869  -35.3925 H         1 GDP         0.0651
     32 H4         -9.6017  -13.1210  -33.5636 H         1 GDP         0.0648
     33 H5         -7.9199  -13.4358  -35.1120 H         1 GDP         0.2100
     34 H6        -10.4806  -10.9535  -34.2002 H         1 GDP         0.0677
     35 H7         -8.1319  -11.2382  -35.7816 H         1 GDP         0.2101
     36 H8         -9.8505  -11.6476  -37.1148 H         1 GDP         0.1021
     37 H9        -12.7781  -10.2301  -34.9942 H         1 GDP         0.1823
     38 H10       -10.7003   -6.4104  -39.8114 H         1 GDP         0.1819
     39 H11        -8.4068   -9.0083  -40.3369 H         1 GDP         0.1774
     40 H12        -8.9912   -7.4117  -40.8775 H         1 GDP         0.1774
     41 H13        -9.3935  -10.0661  -38.5659 H         1 GDP         0.2519
@<TRIPOS>BOND
     1    1    2 ar 
     2    1    3 ar 
     3    1    4 ar 
     4    1    5 1  
     5    5    6 1  
     6    6    7 ar 
     7    6    8 ar 
     8    6    9 1  
     9    9   10 1  
    10   10   11 1  
    11   11   12 1  
    12   11   13 1  
    13   12   17 1  
    14   13   14 1  
    15   13   15 1  
    16   15   16 1  
    17   15   17 1  
    18   17   18 1  
    19   18   19 1  
    20   18   28 1  
    21   19   20 2  
    22   20   21 1  
    23   21   22 1  
    24   21   28 2  
    25   22   23 2  
    26   22   24 am 
    27   24   25 ar 
    28   25   26 ar 
    29   25   27 ar 
    30   27   28 1  
    31   10   29 1  
    32   10   30 1  
    33   11   31 1  
    34   13   32 1  
    35   14   33 1  
    36   15   34 1  
    37   16   35 1  
    38   17   36 1  
    39   19   37 1  
    40   24   38 1  
    41   26   39 1  
    42   26   40 1  
    43   27   41 1  
@<TRIPOS>SUBSTRUCTURE
     1 GDP         1

