### 
### Created by X-TOOL on Sun Nov 13 14:28:14 2016
### 

@<TRIPOS>MOLECULE
5agi_ligand
   48    53     1     0     0
SMALL
GAST_HUCK


@<TRIPOS>ATOM
      1 CB        -16.1190    0.4510   -9.8050 C.3       1 ANZ        -0.1244
      2 CG        -17.0960   -0.6540   -9.5250 C.ar      1 ANZ        -0.1595
      3 CD1       -17.4560   -1.1930   -8.2940 C.ar      1 ANZ        -0.1432
      4 CD2       -17.6410   -1.1040  -10.6910 C.ar      1 ANZ        -0.1811
      5 CE1       -18.3950   -2.2260   -8.2750 C.ar      1 ANZ         0.0167
      6 CE2       -18.5700   -2.1390  -10.6920 C.ar      1 ANZ        -0.1938
      7 CZ        -18.9480   -2.6980   -9.4690 C.ar      1 ANZ        -0.1386
      8 P         -21.4300   -2.0920  -16.9900 P.3       1 ANZ         0.2008
      9 O1P       -22.7670   -1.9800  -16.2970 O.co2     1 ANZ        -0.5537
     10 O2P       -21.1300   -3.4700  -17.5270 O.co2     1 ANZ        -0.5537
     11 O3P       -21.1440   -0.9710  -17.9580 O.co2     1 ANZ        -0.5537
     12 N9        -15.4910   -1.1960  -16.3620 N.pl3     1 ANZ        -0.1957
     13 C8        -15.4110    0.0720  -16.8000 C.2       1 ANZ         0.1121
     14 N7        -14.6700    0.1080  -17.9280 N.2       1 ANZ        -0.2958
     15 C5        -14.2880   -1.1520  -18.2030 C.ar      1 ANZ         0.1045
     16 C6        -13.5250   -1.7210  -19.2160 C.ar      1 ANZ         0.1298
     17 N6        -13.0020   -0.9480  -20.1940 N.pl3     1 ANZ        -0.3152
     18 N1        -13.3110   -3.0550  -19.2160 N.ar      1 ANZ        -0.2698
     19 C2        -13.8250   -3.8280  -18.2470 C.ar      1 ANZ         0.0533
     20 N3        -14.5660   -3.3040  -17.2560 N.ar      1 ANZ        -0.2714
     21 C4        -14.8090   -1.9690  -17.2120 C.ar      1 ANZ         0.1612
     22 O5'       -20.3580   -1.9280  -15.7980 O.3       1 ANZ        -0.2735
     23 C5'       -19.6500   -0.7220  -15.5080 C.3       1 ANZ         0.1036
     24 C4'       -18.4500   -1.1320  -14.6720 C.3       1 ANZ         0.0767
     25 O4'       -17.5800   -1.9480  -15.4680 O.3       1 ANZ        -0.3438
     26 C3'       -17.6080    0.0100  -14.1300 C.3       1 ANZ        -0.1046
     27 O3'       -17.9250    0.3560  -12.7860 O.3       1 ANZ        -0.8522
     28 C2'       -16.2440   -0.6350  -14.0540 C.3       1 ANZ        -0.0794
     29 O2'       -16.2390   -1.1750  -12.7350 O.3       1 ANZ        -0.8504
     30 C1'       -16.2120   -1.6840  -15.1510 C.3       1 ANZ         0.1596
     31 F         -18.7720   -2.7760   -7.1060 F         1 ANZ        -0.2412
     32 O1        -16.2500    0.6040  -11.2300 O.3       1 ANZ        -0.8463
     33 B         -17.0830   -0.3660  -11.9190 B         1 ANZ         3.0000
     34 H         -15.0953    0.1612   -9.5255 H         1 ANZ         0.0215
     35 H         -16.3961    1.3746   -9.2757 H         1 ANZ         0.0215
     36 H         -17.0192   -0.8209   -7.3743 H         1 ANZ        -0.0275
     37 H         -18.9915   -2.5039  -11.6216 H         1 ANZ        -0.0306
     38 H         -19.6743   -3.5024   -9.4456 H         1 ANZ         0.0264
     39 H         -15.8714    0.9346  -16.3206 H         1 ANZ         0.1349
     40 H         -12.4375   -1.3756  -20.9419 H         1 ANZ         0.1820
     41 H         -13.1681    0.0685  -20.1912 H         1 ANZ         0.1820
     42 H         -13.6389   -4.8958  -18.2640 H         1 ANZ         0.0996
     43 H         -20.2907   -0.0291  -14.9429 H         1 ANZ         0.0638
     44 H         -19.3198   -0.2391  -16.4396 H         1 ANZ         0.0638
     45 H         -18.8218   -1.7179  -13.8185 H         1 ANZ         0.0612
     46 H         -17.6431    0.8921  -14.7863 H         1 ANZ         0.0129
     47 H         -15.4241    0.0856  -14.1900 H         1 ANZ         0.0156
     48 H         -15.7214   -2.5974  -14.7836 H         1 ANZ         0.0956
@<TRIPOS>BOND
     1    2    1 1  
     2    1   32 1  
     3    2    3 ar 
     4    4    2 ar 
     5    3    5 ar 
     6    4    6 ar 
     7   33    4 1  
     8    7    5 ar 
     9    5   31 1  
    10    6    7 ar 
    11    8    9 ar 
    12    8   10 ar 
    13    8   11 ar 
    14   22    8 1  
    15   12   13 1  
    16   12   21 1  
    17   30   12 1  
    18   13   14 2  
    19   15   14 1  
    20   15   16 ar 
    21   21   15 ar 
    22   16   17 1  
    23   16   18 ar 
    24   19   18 ar 
    25   20   19 ar 
    26   21   20 ar 
    27   23   22 1  
    28   24   23 1  
    29   24   25 1  
    30   26   24 1  
    31   25   30 1  
    32   27   26 1  
    33   26   28 1  
    34   27   33 1  
    35   28   29 1  
    36   28   30 1  
    37   29   33 1  
    38    1   34 1  
    39    1   35 1  
    40    3   36 1  
    41   32   33 du 
    42    6   37 1  
    43    7   38 1  
    44   13   39 1  
    45   17   40 1  
    46   17   41 1  
    47   19   42 1  
    48   23   43 1  
    49   23   44 1  
    50   24   45 1  
    51   26   46 1  
    52   28   47 1  
    53   30   48 1  
@<TRIPOS>SUBSTRUCTURE
     1 ANZ         1

