### 
### Created by X-TOOL on Sun Nov 13 14:27:19 2016
### 

@<TRIPOS>MOLECULE
5agj_ligand
   48    53     1     0     0
SMALL
GAST_HUCK


@<TRIPOS>ATOM
      1 CB         26.5010   58.8790    9.9720 C.3       1 ANZ        -0.1244
      2 CG         25.5270   59.9950    9.6710 C.ar      1 ANZ        -0.1595
      3 CD1        25.1390   60.5180    8.4430 C.ar      1 ANZ        -0.1432
      4 CD2        24.9740   60.5040   10.9160 C.ar      1 ANZ        -0.1811
      5 CE1        24.2050   61.5530    8.4150 C.ar      1 ANZ         0.0167
      6 CE2        24.0300   61.5460   10.8720 C.ar      1 ANZ        -0.1938
      7 CZ         23.6550   62.0730    9.6130 C.ar      1 ANZ        -0.1386
      8 P          21.3910   61.7540   17.3110 P.3       1 ANZ         0.2008
      9 O1P        21.5580   60.5680   18.2340 O.co2     1 ANZ        -0.5537
     10 O2P        20.2030   61.6600   16.3930 O.co2     1 ANZ        -0.5537
     11 O3P        21.6450   63.0990   17.9720 O.co2     1 ANZ        -0.5537
     12 N9         27.1500   60.5760   16.5510 N.pl3     1 ANZ        -0.1957
     13 C8         27.1520   59.2990   16.9880 C.2       1 ANZ         0.1121
     14 N7         27.8290   59.2050   18.1530 N.2       1 ANZ        -0.2958
     15 C5         28.2590   60.4520   18.4610 C.ar      1 ANZ         0.1045
     16 C6         29.0270   61.0430   19.5630 C.ar      1 ANZ         0.1298
     17 N6         29.4780   60.2510   20.5690 N.pl3     1 ANZ        -0.3152
     18 N1         29.2640   62.3700   19.5340 N.ar      1 ANZ        -0.2698
     19 C2         28.8120   63.1430   18.5280 C.ar      1 ANZ         0.0533
     20 N3         28.0940   62.6680   17.4970 N.ar      1 ANZ        -0.2714
     21 C4         27.7990   61.3470   17.4210 C.ar      1 ANZ         0.1612
     22 O5'        22.7140   61.6360   16.3830 O.3       1 ANZ        -0.2735
     23 C5'        23.0850   60.3830   15.7810 C.3       1 ANZ         0.1036
     24 C4'        24.2500   60.6710   14.8470 C.3       1 ANZ         0.0767
     25 O4'        25.1830   61.4680   15.5870 O.3       1 ANZ        -0.3438
     26 C3'        24.9920   59.4410   14.3430 C.3       1 ANZ        -0.1046
     27 O3'        24.6620   59.0850   13.0070 O.3       1 ANZ        -0.8522
     28 C2'        26.4070   59.9440   14.2800 C.3       1 ANZ        -0.0794
     29 O2'        26.5220   60.3880   12.9440 O.3       1 ANZ        -0.8504
     30 C1'        26.5110   61.0700   15.3070 C.3       1 ANZ         0.1596
     31 F          23.8420   62.0400    7.2110 F         1 ANZ        -0.2412
     32 O1         26.3540   58.7180   11.4010 O.3       1 ANZ        -0.8463
     33 B          25.5670   59.7410   12.1220 B         1 ANZ         3.0000
     34 H1         27.5294   59.1658    9.7073 H         1 ANZ         0.0215
     35 H2         26.2282   57.9573    9.4373 H         1 ANZ         0.0215
     36 H3         25.5559   60.1275    7.5217 H         1 ANZ        -0.0275
     37 H5         23.5977   61.9381   11.7855 H         1 ANZ        -0.0306
     38 H6         22.9380   62.8846    9.5646 H         1 ANZ         0.0264
     39 H7         26.6762   58.4645   16.4751 H         1 ANZ         0.1349
     40 H8         30.0175   60.6609   21.3448 H         1 ANZ         0.1820
     41 H9         29.2807   59.2401   20.5566 H         1 ANZ         0.1820
     42 H10        29.0393   64.2027   18.5516 H         1 ANZ         0.0996
     43 H11        22.2380   59.9703   15.2134 H         1 ANZ         0.0638
     44 H12        23.3905   59.6659   16.5572 H         1 ANZ         0.0638
     45 H13        23.8752   61.2328   13.9787 H         1 ANZ         0.0612
     46 H14        24.8631   58.5843   15.0208 H         1 ANZ         0.0129
     47 H16        27.1440   59.1574   14.4994 H         1 ANZ         0.0156
     48 H18        27.0906   61.9110   14.8986 H         1 ANZ         0.0956
@<TRIPOS>BOND
     1    2    1 1  
     2    1   32 1  
     3    2    3 ar 
     4    4    2 ar 
     5    3    5 ar 
     6    4    6 ar 
     7   33    4 1  
     8    7    5 ar 
     9    5   31 1  
    10    6    7 ar 
    11    8    9 ar 
    12    8   10 ar 
    13    8   11 ar 
    14   22    8 1  
    15   12   13 1  
    16   12   21 1  
    17   30   12 1  
    18   13   14 2  
    19   15   14 1  
    20   15   16 ar 
    21   21   15 ar 
    22   16   17 1  
    23   16   18 ar 
    24   19   18 ar 
    25   20   19 ar 
    26   21   20 ar 
    27   23   22 1  
    28   24   23 1  
    29   24   25 1  
    30   26   24 1  
    31   25   30 1  
    32   27   26 1  
    33   26   28 1  
    34   27   33 1  
    35   28   29 1  
    36   28   30 1  
    37   29   33 1  
    38   33   32 du 
    39    1   34 1  
    40    1   35 1  
    41    3   36 1  
    42    6   37 1  
    43    7   38 1  
    44   13   39 1  
    45   17   40 1  
    46   17   41 1  
    47   19   42 1  
    48   23   43 1  
    49   23   44 1  
    50   24   45 1  
    51   26   46 1  
    52   28   47 1  
    53   30   48 1  
@<TRIPOS>SUBSTRUCTURE
     1 ANZ         1

