### 
### Created by X-TOOL on Fri Sep 26 17:34:21 2014
### 

@<TRIPOS>MOLECULE
1esz_ligand
  114   119     1     0     0
SMALL
GAST_HUCK


@<TRIPOS>ATOM
      1 C1         30.5630   -3.6230  -29.2120 C.2       1 CPO         0.2039
      2 C2         31.2070   -4.8070  -28.4850 C.3       1 CPO         0.1310
      3 C3         30.8310   -6.1910  -29.1440 C.3       1 CPO        -0.0105
      4 C4         29.9240   -6.3210  -30.4170 C.3       1 CPO        -0.0257
      5 C5         29.4300   -7.6990  -30.8440 C.3       1 CPO         0.0630
      6 N1         28.0480   -7.8310  -30.4610 N.am      1 CPO        -0.1507
      7 C6         27.6640   -8.7960  -29.6480 C.2       1 CPO         0.2016
      8 O1         30.8700   -3.3590  -30.3560 O.2       1 CPO        -0.3944
      9 N2         30.7580   -4.9700  -27.1530 N.am      1 CPO        -0.2637
     10 O2         27.1290   -6.9610  -30.9260 O.3       1 CPO        -0.2691
     11 O3         26.5040   -8.8790  -29.3410 O.2       1 CPO        -0.3968
     12 C7         29.8240   -4.2080  -26.4930 C.2       1 CPO         0.2039
     13 C8         29.1270   -2.9930  -27.2520 C.3       1 CPO         0.1310
     14 C9         27.7870   -3.6790  -27.5310 C.3       1 CPO        -0.0105
     15 C10        26.6330   -3.6780  -26.5210 C.3       1 CPO        -0.0257
     16 C11        25.3710   -4.4960  -26.8910 C.3       1 CPO         0.0630
     17 O4         29.5040   -4.4240  -25.3350 O.2       1 CPO        -0.3944
     18 N3         29.6170   -2.8510  -28.5650 N.am      1 CPO        -0.2637
     19 C12        27.0410  -11.2270  -27.5790 C.3       1 CPO        -0.0603
     20 C13        28.3380  -11.1250  -28.4770 C.3       1 CPO        -0.0249
     21 C14        29.2100  -12.3960  -28.7330 C.3       1 CPO        -0.0251
     22 C15        30.0110  -12.6190  -27.4540 C.3       1 CPO         0.0446
     23 O5         30.5440  -13.8690  -27.5010 O.3       1 CPO        -0.3950
     24 C16        28.7200   -9.8420  -29.0740 C.3       1 CPO         0.0418
     25 FE         25.3770   -7.2980  -29.9840 Fe        1 CPO         3.0000
     26 N4         25.2990   -5.2480  -28.1620 N.am      1 CPO        -0.1507
     27 C17        24.7500   -4.7040  -29.2390 C.2       1 CPO         0.2013
     28 C18        24.1890   -3.2340  -29.1990 C.3       1 CPO         0.0392
     29 C19        22.9760   -2.8590  -28.7520 C.3       1 CPO        -0.0337
     30 C20        22.3980   -1.5160  -29.1620 C.3       1 CPO        -0.0229
     31 C21        21.3340   -1.7120  -30.2840 C.3       1 CPO         0.0770
     32 O6         22.0220   -2.1780  -31.4810 O.3       1 CPO        -0.2751
     33 O7         25.7840   -6.4580  -28.2360 O.3       1 CPO        -0.2691
     34 O8         24.6990   -5.3910  -30.3330 O.2       1 CPO        -0.3968
     35 C23        21.5270   -3.5140  -31.8000 C.2       1 CPO         0.2596
     36 C24        22.4880   -4.5710  -32.4480 C.3       1 CPO         0.1422
     37 C25        21.7350   -5.6090  -33.2990 C.3       1 CPO        -0.0091
     38 C26        22.6430   -6.7530  -33.8320 C.3       1 CPO        -0.0256
     39 C27        22.6400   -7.9570  -32.8640 C.3       1 CPO         0.0630
     40 N5         23.4090   -7.9410  -31.7160 N.am      1 CPO        -0.1507
     41 C28        22.8660   -8.0690  -30.5630 C.2       1 CPO         0.2016
     42 C29        21.2840   -8.2540  -30.4190 C.3       1 CPO         0.0418
     43 C30        20.5400   -7.2920  -29.4560 C.3       1 CPO        -0.0249
     44 C31        19.0520   -6.8960  -29.8840 C.3       1 CPO        -0.0251
     45 C32        18.2760   -6.3670  -28.6250 C.3       1 CPO         0.0446
     46 O9         18.1160   -4.9410  -28.7630 O.3       1 CPO        -0.3950
     47 O10        20.3350   -3.8190  -31.5480 O.2       1 CPO        -0.3678
     48 O11        24.7520   -7.7960  -31.7960 O.3       1 CPO        -0.2691
     49 O12        23.5770   -8.0570  -29.5640 O.2       1 CPO        -0.3968
     50 C33        21.3540   -6.3020  -28.7910 C.3       1 CPO        -0.0603
     51 N6         23.2050   -3.8590  -33.3820 N.am      1 CPO        -0.2645
     52 C34        24.4470   -3.3050  -33.3030 C.2       1 CPO         0.1752
     53 O13        25.4200   -3.9760  -32.7920 O.2       1 CPO        -0.3972
     54 C35        24.6920   -1.8760  -33.8270 C.3       1 CPO         0.0258
     55 H1         32.2974   -4.6628  -28.4983 H         1 CPO         0.0800
     56 H2         30.3307   -6.7738  -28.3566 H         1 CPO         0.0313
     57 H3         31.7862   -6.6704  -29.4042 H         1 CPO         0.0313
     58 H4         30.4957   -5.9092  -31.2617 H         1 CPO         0.0288
     59 H5         29.0326   -5.7011  -30.2405 H         1 CPO         0.0288
     60 H6         30.0280   -8.4773  -30.3474 H         1 CPO         0.0551
     61 H7         29.5238   -7.8046  -31.9349 H         1 CPO         0.0551
     62 H8         31.1651   -5.7223  -26.6350 H         1 CPO         0.1883
     63 H9         27.2985   -6.7817  -31.8434 H         1 CPO         0.2492
     64 H10        29.0989   -2.0531  -26.6813 H         1 CPO         0.0800
     65 H11        28.0202   -4.7360  -27.7267 H         1 CPO         0.0313
     66 H12        27.3915   -3.2151  -28.4466 H         1 CPO         0.0313
     67 H13        26.3201   -2.6334  -26.3763 H         1 CPO         0.0288
     68 H14        27.0217   -4.0790  -25.5733 H         1 CPO         0.0288
     69 H15        24.5296   -3.7876  -26.8982 H         1 CPO         0.0551
     70 H16        25.2257   -5.2297  -26.0844 H         1 CPO         0.0551
     71 H17        29.2316   -2.0963  -29.0959 H         1 CPO         0.1883
     72 H18        26.9212  -12.2613  -27.2241 H         1 CPO         0.0234
     73 H19        26.1607  -10.9387  -28.1722 H         1 CPO         0.0234
     74 H20        27.1386  -10.5522  -26.7158 H         1 CPO         0.0234
     75 H21        28.9384  -10.8902  -27.5857 H         1 CPO         0.0323
     76 H22        29.8868  -12.2304  -29.5842 H         1 CPO         0.0291
     77 H23        28.5680  -13.2652  -28.9387 H         1 CPO         0.0291
     78 H24        29.3498  -12.5285  -26.5796 H         1 CPO         0.0557
     79 H25        30.8162  -11.8729  -27.3837 H         1 CPO         0.0557
     80 H26        31.0480  -14.0282  -26.7116 H         1 CPO         0.2094
     81 H27        29.2857   -9.3049  -28.2984 H         1 CPO         0.0504
     82 H28        29.3887  -10.0866  -29.9124 H         1 CPO         0.0504
     83 H29        24.2338   -2.8806  -30.2397 H         1 CPO         0.0502
     84 H30        24.9080   -2.6683  -28.5883 H         1 CPO         0.0502
     85 H31        23.0280   -2.8602  -27.6532 H         1 CPO         0.0290
     86 H32        22.2629   -3.6270  -29.0862 H         1 CPO         0.0290
     87 H33        23.2065   -0.8706  -29.5358 H         1 CPO         0.0292
     88 H34        21.9241   -1.0421  -28.2898 H         1 CPO         0.0292
     89 H35        20.8299   -0.7566  -30.4914 H         1 CPO         0.0613
     90 H36        20.5902   -2.4578  -29.9669 H         1 CPO         0.0613
     91 H37        25.2818   -7.0354  -27.6731 H         1 CPO         0.2492
     92 H38        23.1219   -5.0532  -31.6893 H         1 CPO         0.0816
     93 H39        21.2849   -5.0926  -34.1597 H         1 CPO         0.0314
     94 H40        20.9406   -6.0543  -32.6820 H         1 CPO         0.0314
     95 H41        23.6716   -6.3774  -33.9360 H         1 CPO         0.0288
     96 H42        22.2709   -7.0799  -34.8142 H         1 CPO         0.0288
     97 H43        22.9654   -8.8305  -33.4480 H         1 CPO         0.0551
     98 H44        21.5978   -8.0988  -32.5420 H         1 CPO         0.0551
     99 H45        21.1020   -9.2801  -30.0668 H         1 CPO         0.0504
    100 H46        20.8440   -8.1260  -31.4190 H         1 CPO         0.0504
    101 H47        20.3287   -7.9676  -28.6140 H         1 CPO         0.0323
    102 H48        18.5378   -7.7803  -30.2883 H         1 CPO         0.0291
    103 H49        19.0871   -6.1092  -30.6519 H         1 CPO         0.0291
    104 H50        18.8485   -6.5912  -27.7129 H         1 CPO         0.0557
    105 H51        17.2889   -6.8488  -28.5660 H         1 CPO         0.0557
    106 H52        17.6478   -4.6005  -28.0098 H         1 CPO         0.2094
    107 H53        25.1727   -8.6210  -31.5843 H         1 CPO         0.2492
    108 H54        22.3418   -6.7306  -28.5660 H         1 CPO         0.0234
    109 H55        20.8657   -5.9948  -27.8544 H         1 CPO         0.0234
    110 H56        21.4747   -5.4265  -29.4459 H         1 CPO         0.0234
    111 H57        22.7406   -3.7273  -34.2578 H         1 CPO         0.1884
    112 H58        25.7480   -1.6066  -33.6774 H         1 CPO         0.0467
    113 H59        24.0521   -1.1694  -33.2781 H         1 CPO         0.0467
    114 H60        24.4509   -1.8323  -34.8993 H         1 CPO         0.0467
@<TRIPOS>BOND
     1    2    1 1  
     2    1    8 2  
     3    1   18 am 
     4    3    2 1  
     5    2    9 1  
     6    4    3 1  
     7    5    4 1  
     8    6    5 1  
     9    7    6 am 
    10    6   10 1  
    11    7   11 2  
    12   24    7 1  
    13    9   12 am 
    14   25   10 1  
    15   11   25 1  
    16   12   13 1  
    17   12   17 2  
    18   13   14 1  
    19   18   13 1  
    20   14   15 1  
    21   15   16 1  
    22   16   26 1  
    23   20   19 1  
    24   20   21 1  
    25   20   24 1  
    26   21   22 1  
    27   22   23 1  
    28   25   33 1  
    29   25   34 1  
    30   25   48 1  
    31   25   49 1  
    32   26   27 am 
    33   26   33 1  
    34   27   28 1  
    35   27   34 2  
    36   28   29 1  
    37   29   30 1  
    38   30   31 1  
    39   31   32 1  
    40   32   35 1  
    41   35   36 1  
    42   35   47 2  
    43   36   37 1  
    44   36   51 1  
    45   37   38 1  
    46   38   39 1  
    47   39   40 1  
    48   40   41 am 
    49   40   48 1  
    50   41   42 1  
    51   41   49 2  
    52   42   43 1  
    53   43   44 1  
    54   43   50 1  
    55   44   45 1  
    56   45   46 1  
    57   51   52 am 
    58   52   53 2  
    59   52   54 1  
    60    2   55 1  
    61    3   56 1  
    62    3   57 1  
    63    4   58 1  
    64    4   59 1  
    65    5   60 1  
    66    5   61 1  
    67    9   62 1  
    68   10   63 1  
    69   13   64 1  
    70   14   65 1  
    71   14   66 1  
    72   15   67 1  
    73   15   68 1  
    74   16   69 1  
    75   16   70 1  
    76   18   71 1  
    77   19   72 1  
    78   19   73 1  
    79   19   74 1  
    80   20   75 1  
    81   21   76 1  
    82   21   77 1  
    83   22   78 1  
    84   22   79 1  
    85   23   80 1  
    86   24   81 1  
    87   24   82 1  
    88   28   83 1  
    89   28   84 1  
    90   29   85 1  
    91   29   86 1  
    92   30   87 1  
    93   30   88 1  
    94   31   89 1  
    95   31   90 1  
    96   33   91 1  
    97   36   92 1  
    98   37   93 1  
    99   37   94 1  
   100   38   95 1  
   101   38   96 1  
   102   39   97 1  
   103   39   98 1  
   104   42   99 1  
   105   42  100 1  
   106   43  101 1  
   107   44  102 1  
   108   44  103 1  
   109   45  104 1  
   110   45  105 1  
   111   46  106 1  
   112   48  107 1  
   113   50  108 1  
   114   50  109 1  
   115   50  110 1  
   116   51  111 1  
   117   54  112 1  
   118   54  113 1  
   119   54  114 1  
@<TRIPOS>SUBSTRUCTURE
     1 CPO         1

