### 
### Created by X-TOOL on Fri Sep 26 17:34:17 2014
### 

@<TRIPOS>MOLECULE
1g6g_ligand
  130   127     1     0     0
SMALL
GAST_HUCK


@<TRIPOS>ATOM
      1 N          -4.6920   17.1330    2.5160 N.4       1 SER1        0.2396
      2 CA         -4.5610   17.5590    1.0860 C.3       1 SER1        0.0885
      3 C          -3.1650   18.1530    0.8350 C.2       1 SER1        0.2290
      4 O          -2.4720   18.4960    1.7830 O.2       1 SER1       -0.3906
      5 CB         -5.7290   18.4790    0.6610 C.3       1 SER1        0.1041
      6 OG         -5.9670   19.4990    1.6150 O.3       1 SER1       -0.3870
      7 N          -2.7970   18.3130   -0.4330 N.am      1 SER1       -0.2609
      8 CA         -1.3960   18.6520   -0.7680 C.3       1 SER1        0.1313
      9 C          -1.1520   20.0890   -1.2450 C.2       1 SER1        0.2039
     10 O          -0.1400   20.3610   -1.9030 O.2       1 SER1       -0.3944
     11 CB         -0.9040   17.6680   -1.8150 C.3       1 SER1       -0.0101
     12 CG         -0.9930   16.1820   -1.4380 C.3       1 SER1       -0.0425
     13 CD1        -0.5130   15.2790   -2.5860 C.3       1 SER1       -0.0625
     14 CD2        -0.2260   15.9200   -0.1660 C.3       1 SER1       -0.0625
     15 N          -2.0570   21.0150   -0.9420 N.am      1 SER1       -0.2636
     16 CA         -1.9090   22.3810   -1.4310 C.3       1 SER1        0.1325
     17 C          -0.6630   23.0540   -0.8490 C.2       1 SER1        0.2041
     18 O          -0.1450   22.6210    0.1850 O.2       1 SER1       -0.3944
     19 CB         -3.1660   23.2270   -1.0790 C.3       1 SER1       -0.0008
     20 CG         -3.3810   23.4400    0.4160 C.3       1 SER1        0.0044
     21 CD         -4.2470   22.3780    1.0600 C.2       1 SER1        0.0350
     22 OE1        -4.3680   21.2490    0.5350 O.co2     1 SER1       -0.5690
     23 OE2        -4.9230   22.6960    2.0710 O.co2     1 SER1       -0.5690
     24 N          -0.1990   24.0880   -1.5210 N.am      1 SER1       -0.2647
     25 CA          0.9070   24.9090   -0.9860 C.3       1 SER1        0.1151
     26 C           0.6330   25.3450    0.4380 C.2       1 SER1        0.1247
     27 O          -0.5440   25.6140    0.7950 O.2       1 SER1       -0.3724
     28 CB          1.1150   26.1500   -1.8480 C.3       1 SER1       -0.0076
     29 CG1         2.2120   27.0430   -1.2490 C.3       1 SER1       -0.0584
     30 CG2         1.4980   25.7160   -3.2500 C.3       1 SER1       -0.0584
     31 N           1.5700   25.2260    1.3740 N.4       1 TPO5        0.2244
     32 CA          1.4250   25.5900    2.7740 C.3       1 TPO5        0.0279
     33 CB          2.8310   25.3690    3.3530 C.3       1 TPO5        0.1116
     34 CG2         2.7870   25.4690    4.8660 C.3       1 TPO5       -0.0311
     35 OG1         3.2210   24.0420    3.0650 O.3       1 TPO5       -0.2998
     36 P           4.5260   23.8140    2.1250 P.3       1 TPO5        0.3865
     37 O1P         5.7570   24.3760    2.9390 O.3       1 TPO5       -0.3247
     38 O2P         4.3010   24.6350    0.7710 O.3       1 TPO5       -0.3247
     39 O3P         4.6370   22.2220    1.9090 O.3       1 TPO5       -0.3247
     40 C           1.0300   27.0630    2.9420 C.3       1 TPO5        0.0894
     41 O           1.5510   28.0150    2.1750 O.3       1 TPO5       -0.3894
     42 N           0.1220   27.2280    3.9120 N.4       1 GLU6        0.2380
     43 CA         -0.2720   28.5600    4.4490 C.3       1 GLU6        0.0665
     44 C           0.8870   29.1230    5.2550 C.2       1 GLU6        0.2268
     45 O           1.2610   28.5520    6.2770 O.2       1 GLU6       -0.3907
     46 CB         -1.5350   28.4110    5.3120 C.3       1 GLU6        0.0194
     47 CG         -2.0440   29.6970    5.9430 C.3       1 GLU6        0.0075
     48 CD         -3.1420   29.4430    6.9690 C.2       1 GLU6        0.0351
     49 OE1        -3.7450   28.3680    6.9350 O.co2     1 GLU6       -0.5690
     50 OE2        -3.3770   30.3180    7.8280 O.co2     1 GLU6       -0.5690
     51 N           1.4560   30.2200    4.7670 N.am      1 GLU6       -0.2613
     52 CA          2.6180   30.8510    5.3960 C.3       1 GLU6        0.1283
     53 C           2.2920   31.9080    6.4330 C.2       1 GLU6        0.2038
     54 O           1.5550   32.8700    6.1680 O.2       1 GLU6       -0.3944
     55 CB          3.5550   31.4310    4.3480 C.3       1 GLU6       -0.0244
     56 N           2.8950   31.7620    7.6030 N.am      1 GLU6       -0.2609
     57 CA          2.7320   32.7550    8.6560 C.3       1 GLU6        0.1534
     58 C           3.2960   34.1080    8.2240 C.2       1 GLU6        0.2588
     59 O           2.7480   35.1560    8.6230 O.2       1 GLU6       -0.3679
     60 CB          3.4250   32.2890    9.9350 C.3       1 GLU6        0.0420
     61 CG          2.7140   31.1410   10.5980 C.2       1 GLU6        0.0394
     62 OD1         1.5110   30.8940   10.3280 O.co2     1 GLU6       -0.5688
     63 OD2         3.3250   30.4100   11.4000 O.co2     1 GLU6       -0.5688
     64 O1          4.3613   34.1682    7.4300 O.3       1 GLU6       -0.2909
     65 H1         -5.6101   16.7457    2.6684 H         1 SER1        0.2016
     66 H2         -4.5598   17.9308    3.1177 H         1 SER1        0.2016
     67 H3         -3.9944   16.4358    2.7242 H         1 SER1        0.2016
     68 H4         -4.6357   16.6530    0.4666 H         1 SER1        0.1122
     69 H5         -6.6400   17.8719    0.5536 H         1 SER1        0.0640
     70 H6         -5.4827   18.9447   -0.3046 H         1 SER1        0.0640
     71 H7         -5.1858   20.0312    1.7095 H         1 SER1        0.2099
     72 H8         -3.4706   18.2036   -1.1639 H         1 SER1        0.1884
     73 H9         -0.8001   18.5131    0.1461 H         1 SER1        0.0800
     74 H10         0.1508   17.8992   -2.0246 H         1 SER1        0.0315
     75 H11        -1.5009   17.8201   -2.7264 H         1 SER1        0.0315
     76 H12        -2.0503   15.9448   -1.2487 H         1 SER1        0.0298
     77 H13        -0.5909   14.2251   -2.2806 H         1 SER1        0.0232
     78 H14         0.5345   15.5151   -2.8248 H         1 SER1        0.0232
     79 H15        -1.1392   15.4506   -3.4739 H         1 SER1        0.0232
     80 H16        -0.5973   16.5832    0.6292 H         1 SER1        0.0232
     81 H17         0.8433   16.1143   -0.3359 H         1 SER1        0.0232
     82 H18        -0.3647   14.8716    0.1365 H         1 SER1        0.0232
     83 H19        -2.8444   20.7731   -0.3750 H         1 SER1        0.1883
     84 H20        -1.8054   22.3448   -2.5255 H         1 SER1        0.0801
     85 H21        -4.0508   22.7145   -1.4846 H         1 SER1        0.0330
     86 H22        -3.0624   24.2128   -1.5559 H         1 SER1        0.0330
     87 H23        -3.8630   24.4179    0.5624 H         1 SER1        0.0433
     88 H24        -2.3995   23.4369    0.9127 H         1 SER1        0.0433
     89 H25        -0.6014   24.3207   -2.4064 H         1 SER1        0.1884
     90 H26         1.8266   24.3056   -1.0005 H         1 SER1        0.0793
     91 H27         1.4518   25.4257    1.1514 H         1 SER1        0.1373
     92 H28         0.1757   26.7209   -1.8905 H         1 SER1        0.0343
     93 H29         2.3481   27.9317   -1.8828 H         1 SER1        0.0235
     94 H30         3.1559   26.4805   -1.1987 H         1 SER1        0.0235
     95 H31         1.9175   27.3564   -0.2366 H         1 SER1        0.0235
     96 H32         0.7043   25.0780   -3.6660 H         1 SER1        0.0235
     97 H33         2.4413   25.1513   -3.2142 H         1 SER1        0.0235
     98 H34         1.6260   26.6039   -3.8866 H         1 SER1        0.0235
     99 H35         0.6857   25.3402    0.9038 H         1 TPO5        0.1999
    100 H36         1.8652   24.2646    1.3056 H         1 TPO5        0.1999
    101 H37         2.2596   25.8208    0.9418 H         1 TPO5        0.1999
    102 H38         0.6823   24.9481    3.2703 H         1 TPO5        0.0901
    103 H39         3.5408   26.0955    2.9307 H         1 TPO5        0.0678
    104 H40         3.7963   25.3099    5.2735 H         1 TPO5        0.0259
    105 H41         2.1057   24.7028    5.2645 H         1 TPO5        0.0259
    106 H42         2.4272   26.4668    5.1572 H         1 TPO5        0.0259
    107 H43         6.5503   24.2651    2.4281 H         1 TPO5        0.2289
    108 H44         5.0528   24.5177    0.2022 H         1 TPO5        0.2289
    109 H45         5.3893   22.0295    1.3618 H         1 TPO5        0.2289
    110 H46         1.2743   27.3330    3.9800 H         1 TPO5        0.0615
    111 H47        -0.0594   27.1102    2.7975 H         1 TPO5        0.0615
    112 H48         1.1880   28.8563    2.4259 H         1 TPO5        0.2097
    113 H49        -0.6394   26.8437    3.3748 H         1 GLU6        0.2015
    114 H50         0.3399   26.6085    4.6767 H         1 GLU6        0.2015
    115 H51         0.9321   27.3302    3.3210 H         1 GLU6        0.2015
    116 H52        -0.4909   29.2406    3.6131 H         1 GLU6        0.1099
    117 H53        -1.3121   27.7001    6.1213 H         1 GLU6        0.0363
    118 H54        -2.3353   28.0041    4.6764 H         1 GLU6        0.0363
    119 H55        -2.4442   30.3458    5.1500 H         1 GLU6        0.0434
    120 H56        -1.2041   30.2029    6.4417 H         1 GLU6        0.0434
    121 H57         1.0760   30.6306    3.9381 H         1 GLU6        0.1884
    122 H58         3.1617   30.0512    5.9201 H         1 GLU6        0.0797
    123 H59         4.4176   31.8980    4.8457 H         1 GLU6        0.0277
    124 H60         3.0195   32.1877    3.7559 H         1 GLU6        0.0277
    125 H61         3.9057   30.6269    3.6844 H         1 GLU6        0.0277
    126 H62         3.4695   30.9598    7.7656 H         1 GLU6        0.1886
    127 H63         1.6576   32.8730    8.8602 H         1 GLU6        0.0835
    128 H64         3.4649   33.1321   10.6403 H         1 GLU6        0.0480
    129 H65         4.4480   31.9714    9.6848 H         1 GLU6        0.0480
    130 H66         4.6503   33.2873    7.2224 H         1 GLU6        0.2540
@<TRIPOS>BOND
     1    2    1 1  
     2    2    5 1  
     3    3    2 1  
     4    3    4 2  
     5    5    6 1  
     6    8    7 1  
     7    8   11 1  
     8    9    8 1  
     9    9   10 2  
    10   11   12 1  
    11   12   13 1  
    12   12   14 1  
    13    7    3 am 
    14   16   15 1  
    15   16   19 1  
    16   17   16 1  
    17   17   18 2  
    18   19   20 1  
    19   20   21 1  
    20   21   23 ar 
    21   21   22 ar 
    22   15    9 am 
    23   24   25 1  
    24   25   28 1  
    25   25   26 1  
    26   26   27 2  
    27   28   30 1  
    28   28   29 1  
    29   17   24 am 
    30   43   42 1  
    31   43   46 1  
    32   44   43 1  
    33   44   45 2  
    34   46   47 1  
    35   47   48 1  
    36   48   50 ar 
    37   48   49 ar 
    38   52   51 1  
    39   52   55 1  
    40   53   52 1  
    41   53   54 2  
    42   51   44 am 
    43   56   57 1  
    44   57   60 1  
    45   57   58 1  
    46   58   59 2  
    47   60   61 1  
    48   61   62 ar 
    49   61   63 ar 
    50   53   56 am 
    51   31   32 1  
    52   32   33 1  
    53   32   40 1  
    54   33   34 1  
    55   33   35 1  
    56   35   36 1  
    57   36   37 1  
    58   36   38 1  
    59   36   39 1  
    60   40   41 1  
    61   58   64 1  
    62    1   65 1  
    63    1   66 1  
    64    1   67 1  
    65    2   68 1  
    66    5   69 1  
    67    5   70 1  
    68    6   71 1  
    69    7   72 1  
    70    8   73 1  
    71   11   74 1  
    72   11   75 1  
    73   12   76 1  
    74   13   77 1  
    75   13   78 1  
    76   13   79 1  
    77   14   80 1  
    78   14   81 1  
    79   14   82 1  
    80   15   83 1  
    81   16   84 1  
    82   19   85 1  
    83   19   86 1  
    84   20   87 1  
    85   20   88 1  
    86   24   89 1  
    87   25   90 1  
    88   26   91 1  
    89   28   92 1  
    90   29   93 1  
    91   29   94 1  
    92   29   95 1  
    93   30   96 1  
    94   30   97 1  
    95   30   98 1  
    96   31   99 1  
    97   31  100 1  
    98   31  101 1  
    99   32  102 1  
   100   33  103 1  
   101   34  104 1  
   102   34  105 1  
   103   34  106 1  
   104   37  107 1  
   105   38  108 1  
   106   39  109 1  
   107   40  110 1  
   108   40  111 1  
   109   41  112 1  
   110   42  113 1  
   111   42  114 1  
   112   42  115 1  
   113   43  116 1  
   114   46  117 1  
   115   46  118 1  
   116   47  119 1  
   117   47  120 1  
   118   51  121 1  
   119   52  122 1  
   120   55  123 1  
   121   55  124 1  
   122   55  125 1  
   123   56  126 1  
   124   57  127 1  
   125   60  128 1  
   126   60  129 1  
   127   64  130 1  
@<TRIPOS>SUBSTRUCTURE
     1 SER1        1

