### 
### Created by X-TOOL on Fri Sep 26 17:34:18 2014
### 

@<TRIPOS>MOLECULE
1ke1_ligand
   60    61     1     0     0
SMALL
GAST_HUCK


@<TRIPOS>ATOM
      1 CA         23.5490   12.1870    7.4530 C.3       1 MOL         0.0397
      2 CB         23.6500   13.0510    6.1820 C.3       1 MOL        -0.0298
      3 CG1        25.0070   13.6960    6.0050 C.3       1 MOL        -0.0606
      4 CG2        23.3440   12.1830    4.9580 C.3       1 MOL        -0.0606
      5 C          24.1740   12.8710    8.6590 C.2       1 MOL         0.1786
      6 O          25.3800   13.0720    8.7060 O.2       1 MOL        -0.3969
      7 N          23.3580   13.2250    9.6630 N.am      1 MOL        -0.2640
      8 CA         23.9190   13.9670   10.7840 C.3       1 MOL         0.1388
      9 C          24.8340   13.1250   11.6630 C.2       1 MOL         0.2039
     10 O          24.5010   11.9790   12.0080 O.2       1 MOL        -0.3943
     11 CB         22.7830   14.4970   11.6640 C.3       1 MOL         0.0163
     12 CG         21.7120   15.3160   10.9970 C.ar      1 MOL        -0.0493
     13 CD1        20.3850   15.1870   11.3970 C.ar      1 MOL        -0.0685
     14 CD2        21.9990   16.2160    9.9900 C.ar      1 MOL        -0.0685
     15 CE1        19.3760   15.9310   10.8030 C.ar      1 MOL        -0.0398
     16 CE2        20.9990   16.9610    9.3870 C.ar      1 MOL        -0.0398
     17 CZ         19.6940   16.8160    9.7960 C.ar      1 MOL         0.0805
     18 OH         18.6990   17.5560    9.1990 O.3       1 MOL        -0.3376
     19 N          25.9510   13.7400   12.0570 N.am      1 MOL        -0.2779
     20 CA         26.8100   13.0740   13.0390 C.3       1 MOL         0.0731
     21 C          26.7780   13.8080   14.3850 C.3       1 MOL         0.0687
     22 O          27.5980   13.0750   15.3620 O.3       1 MOL        -0.3926
     23 CB         28.2390   13.0060   12.5110 C.3       1 MOL         0.0010
     24 CG         28.4610   12.0210   11.3770 C.ar      1 MOL        -0.0515
     25 CD1        29.3190   12.3220   10.3290 C.ar      1 MOL        -0.0687
     26 CD2        27.8000   10.7960   11.3790 C.ar      1 MOL        -0.0687
     27 CE1        29.5060   11.3940    9.3040 C.ar      1 MOL        -0.0398
     28 CE2        27.9820    9.8750   10.3590 C.ar      1 MOL        -0.0398
     29 CZ         28.8390   10.1960    9.3240 C.ar      1 MOL         0.0805
     30 OH         29.0160    9.2630    8.3070 O.3       1 MOL        -0.3376
     31 H1         24.0689   11.2338    7.2766 H         1 MOL         0.0505
     32 H2         22.4877   11.9918    7.6662 H         1 MOL         0.0505
     33 H3         22.8972   13.8501    6.2506 H         1 MOL         0.0320
     34 H4         25.0105   14.2956    5.0828 H         1 MOL         0.0234
     35 H5         25.7783   12.9147    5.9372 H         1 MOL         0.0234
     36 H6         25.2189   14.3467    6.8662 H         1 MOL         0.0234
     37 H7         22.3580   11.7109    5.0806 H         1 MOL         0.0234
     38 H8         24.1140   11.4036    4.8594 H         1 MOL         0.0234
     39 H9         23.3401   12.8109    4.0549 H         1 MOL         0.0234
     40 H10        22.3874   12.9852    9.6424 H         1 MOL         0.1884
     41 H11        24.4967   14.8133   10.3841 H         1 MOL         0.0821
     42 H12        23.2369   15.1228   12.4465 H         1 MOL         0.0453
     43 H13        22.2927   13.6283   12.1276 H         1 MOL         0.0453
     44 H14        20.1348   14.4906   12.1892 H         1 MOL         0.0530
     45 H15        23.0256   16.3418    9.6654 H         1 MOL         0.0530
     46 H16        18.3480   15.8173   11.1277 H         1 MOL         0.0525
     47 H17        21.2448   17.6575    8.5936 H         1 MOL         0.0525
     48 H18        17.8627   17.3389    9.5938 H         1 MOL         0.2458
     49 H19        26.1965   14.6370   11.6894 H         1 MOL         0.1857
     50 H20        26.4399   12.0494   13.1911 H         1 MOL         0.0599
     51 H21        25.7408   13.8659   14.7467 H         1 MOL         0.0582
     52 H22        27.1794   14.8243   14.2583 H         1 MOL         0.0582
     53 H23        27.5785   13.5294   16.1961 H         1 MOL         0.2095
     54 H24        28.8970   12.7196   13.3447 H         1 MOL         0.0428
     55 H25        28.5174   14.0076   12.1516 H         1 MOL         0.0428
     56 H26        29.8407   13.2720   10.3067 H         1 MOL         0.0530
     57 H27        27.1285   10.5571   12.1957 H         1 MOL         0.0530
     58 H28        30.1820   11.6212    8.4876 H         1 MOL         0.0525
     59 H29        27.4630    8.9234   10.3732 H         1 MOL         0.0525
     60 H30        29.6252    9.6069    7.6643 H         1 MOL         0.2458
@<TRIPOS>BOND
     1    1    2 1  
     2    1    5 1  
     3    2    3 1  
     4    2    4 1  
     5    5    6 2  
     6    5    7 am 
     7    7    8 1  
     8    8    9 1  
     9    8   11 1  
    10    9   10 2  
    11    9   19 am 
    12   11   12 1  
    13   12   13 ar 
    14   12   14 ar 
    15   13   15 ar 
    16   14   16 ar 
    17   15   17 ar 
    18   16   17 ar 
    19   17   18 1  
    20   19   20 1  
    21   20   21 1  
    22   20   23 1  
    23   21   22 1  
    24   23   24 1  
    25   24   25 ar 
    26   24   26 ar 
    27   25   27 ar 
    28   26   28 ar 
    29   27   29 ar 
    30   28   29 ar 
    31   29   30 1  
    32    1   31 1  
    33    1   32 1  
    34    2   33 1  
    35    3   34 1  
    36    3   35 1  
    37    3   36 1  
    38    4   37 1  
    39    4   38 1  
    40    4   39 1  
    41    7   40 1  
    42    8   41 1  
    43   11   42 1  
    44   11   43 1  
    45   13   44 1  
    46   14   45 1  
    47   15   46 1  
    48   16   47 1  
    49   18   48 1  
    50   19   49 1  
    51   20   50 1  
    52   21   51 1  
    53   21   52 1  
    54   22   53 1  
    55   23   54 1  
    56   23   55 1  
    57   25   56 1  
    58   26   57 1  
    59   27   58 1  
    60   28   59 1  
    61   30   60 1  
@<TRIPOS>SUBSTRUCTURE
     1 MOL         1

