### 
### Created by X-TOOL on Fri Sep 26 17:34:18 2014
### 

@<TRIPOS>MOLECULE
1ke2_ligand
   66    67     1     0     0
SMALL
GAST_HUCK


@<TRIPOS>ATOM
      1 NE         23.4560   12.9670    3.5140 N.pl3     1 MOL        -0.2720
      2 CD2        23.1620   11.7020    4.0460 C.cat     1 MOL         0.2908
      3 CD1        23.8220   14.0920    4.4400 C.3       1 MOL         0.0663
      4 NH         22.6550   10.8510    3.1140 N.pl3     1 MOL        -0.2847
      5 CB         22.9440   12.5700    6.1200 C.3       1 MOL         0.1365
      6 CG1        24.0970   13.5670    5.8440 C.3       1 MOL         0.0239
      7 NG2        22.7460   11.4720    5.3230 N.pl3     1 MOL        -0.2622
      8 N          22.0260   11.2550    7.9990 N.4       1 MOL         0.2407
      9 CA         23.2530   11.8580    7.4710 C.3       1 MOL         0.1014
     10 C          23.8740   12.7900    8.5000 C.2       1 MOL         0.2305
     11 O          25.0520   13.1380    8.4380 O.2       1 MOL        -0.3906
     12 N          23.0610   13.1800    9.4810 N.am      1 MOL        -0.2609
     13 CA         23.4980   14.0280   10.5830 C.3       1 MOL         0.1312
     14 C          24.4700   13.2720   11.4810 C.2       1 MOL         0.2021
     15 O          24.1980   12.1470   11.9060 O.2       1 MOL        -0.3945
     16 CB         22.3050   14.5050   11.4060 C.3       1 MOL        -0.0101
     17 CG         21.5810   15.7940   11.0340 C.3       1 MOL        -0.0425
     18 CD1        21.6390   16.0970    9.5470 C.3       1 MOL        -0.0625
     19 CD2        20.1240   15.7210   11.4740 C.3       1 MOL        -0.0625
     20 N          25.6190   13.8590   11.8030 N.am      1 MOL        -0.2778
     21 CA         26.5250   13.1470   12.7050 C.3       1 MOL         0.0745
     22 C          26.4730   13.7580   14.1020 C.3       1 MOL         0.0689
     23 O          27.1580   12.9280   15.0600 O.3       1 MOL        -0.3926
     24 CB         27.9360   13.1720   12.1300 C.3       1 MOL         0.0061
     25 CG         28.2050   12.0260   11.1630 C.ar      1 MOL        -0.0408
     26 CD1        29.1820   12.1440   10.1850 C.ar      1 MOL        -0.0603
     27 CD2        27.4670   10.8550   11.2620 C.ar      1 MOL        -0.0603
     28 CE1        29.4240   11.0970    9.3100 C.ar      1 MOL        -0.0686
     29 CE2        27.7070    9.8090   10.3870 C.ar      1 MOL        -0.0686
     30 CZ         28.6850    9.9280    9.4090 C.ar      1 MOL        -0.0687
     31 H1         23.4211   13.1229    2.4965 H         1 MOL         0.2642
     32 H2         22.9909   14.8115    4.4801 H         1 MOL         0.0690
     33 H3         24.7237   14.5941    4.0594 H         1 MOL         0.0690
     34 H4         22.3984    9.8896    3.3799 H         1 MOL         0.2615
     35 H5         22.5277   11.1680    2.1423 H         1 MOL         0.2615
     36 H6         22.0103   13.1497    6.1666 H         1 MOL         0.0812
     37 H7         24.0837   14.3884    6.5755 H         1 MOL         0.0340
     38 H8         25.0703   13.0560    5.8840 H         1 MOL         0.0340
     39 H9         22.3348   10.5855    5.6484 H         1 MOL         0.2648
     40 H10        22.2270   10.7947    8.8729 H         1 MOL         0.2016
     41 H11        21.6713   10.5814    7.3383 H         1 MOL         0.2016
     42 H12        21.3358   11.9741    8.1490 H         1 MOL         0.2016
     43 H13        23.9754   11.0530    7.2707 H         1 MOL         0.1137
     44 H14        22.1081   12.8773    9.4602 H         1 MOL         0.1885
     45 H15        24.0119   14.9065   10.1657 H         1 MOL         0.0800
     46 H16        22.6628   14.6300   12.4386 H         1 MOL         0.0315
     47 H17        21.5556   13.7004   11.3724 H         1 MOL         0.0315
     48 H18        22.0685   16.6218   11.5697 H         1 MOL         0.0298
     49 H19        21.1015   17.0347    9.3427 H         1 MOL         0.0232
     50 H20        21.1689   15.2754    8.9867 H         1 MOL         0.0232
     51 H21        22.6886   16.2005    9.2345 H         1 MOL         0.0232
     52 H22        20.0768   15.5016   12.5509 H         1 MOL         0.0232
     53 H23        19.6115   14.9244   10.9147 H         1 MOL         0.0232
     54 H24        19.6319   16.6843   11.2741 H         1 MOL         0.0232
     55 H25        25.8567   14.7598   11.4397 H         1 MOL         0.1857
     56 H26        26.1983   12.0991   12.7763 H         1 MOL         0.0601
     57 H27        25.4218   13.8657   14.4075 H         1 MOL         0.0582
     58 H28        26.9514   14.7483   14.0785 H         1 MOL         0.0582
     59 H29        27.1105   13.3307   15.9191 H         1 MOL         0.2095
     60 H30        28.6542   13.1057   12.9605 H         1 MOL         0.0449
     61 H31        28.0800   14.1226   11.5956 H         1 MOL         0.0449
     62 H32        29.7582   13.0587   10.1050 H         1 MOL         0.0557
     63 H33        26.7025   10.7591   12.0245 H         1 MOL         0.0557
     64 H34        30.1902   11.1918    8.5490 H         1 MOL         0.0599
     65 H35        27.1297    8.8949   10.4659 H         1 MOL         0.0599
     66 H36        28.8706    9.1086    8.7240 H         1 MOL         0.0559
@<TRIPOS>BOND
     1    1    2 ar 
     2    1    3 1  
     3    2    4 ar 
     4    2    7 ar 
     5    3    6 1  
     6    6    5 1  
     7    5    7 1  
     8    5    9 1  
     9    9    8 1  
    10    9   10 1  
    11   10   11 2  
    12   10   12 am 
    13   12   13 1  
    14   13   14 1  
    15   13   16 1  
    16   14   15 2  
    17   14   20 am 
    18   16   17 1  
    19   17   18 1  
    20   17   19 1  
    21   20   21 1  
    22   21   22 1  
    23   21   24 1  
    24   22   23 1  
    25   24   25 1  
    26   25   26 ar 
    27   25   27 ar 
    28   26   28 ar 
    29   27   29 ar 
    30   28   30 ar 
    31   29   30 ar 
    32    1   31 1  
    33    3   32 1  
    34    3   33 1  
    35    4   34 1  
    36    4   35 1  
    37    5   36 1  
    38    6   37 1  
    39    6   38 1  
    40    7   39 1  
    41    8   40 1  
    42    8   41 1  
    43    8   42 1  
    44    9   43 1  
    45   12   44 1  
    46   13   45 1  
    47   16   46 1  
    48   16   47 1  
    49   17   48 1  
    50   18   49 1  
    51   18   50 1  
    52   18   51 1  
    53   19   52 1  
    54   19   53 1  
    55   19   54 1  
    56   20   55 1  
    57   21   56 1  
    58   22   57 1  
    59   22   58 1  
    60   23   59 1  
    61   24   60 1  
    62   24   61 1  
    63   26   62 1  
    64   27   63 1  
    65   28   64 1  
    66   29   65 1  
    67   30   66 1  
@<TRIPOS>SUBSTRUCTURE
     1 MOL         1

