### 
### Created by X-TOOL on Fri Sep 26 17:34:30 2014
### 

@<TRIPOS>MOLECULE
2a3i_ligand
   53    56     1     0     0
SMALL
GAST_HUCK


@<TRIPOS>ATOM
      1 C1         23.9540   72.0080   15.0720 C.2       1 MOL        -0.0963
      2 C2         23.9180   70.6490   14.9210 C.2       1 MOL         0.0360
      3 C3         22.7570   70.0410   14.1200 C.2       1 MOL         0.2468
      4 C4         21.6850   70.9680   13.5300 C.2       1 MOL         0.0345
      5 C5         21.7730   72.3000   13.7040 C.2       1 MOL        -0.0781
      6 C6         20.6600   73.1620   13.0740 C.3       1 MOL        -0.0270
      7 C7         20.1530   74.1870   14.1130 C.3       1 MOL        -0.0409
      8 C8         21.2620   75.0020   14.8500 C.3       1 MOL        -0.0436
      9 C9         22.2820   74.0090   15.5460 C.3       1 MOL        -0.0508
     10 C10        22.9190   73.0030   14.4890 C.3       1 MOL        -0.0463
     11 C11        23.3930   74.7690   16.3940 C.3       1 MOL         0.0460
     12 C12        22.7800   75.8130   17.3680 C.3       1 MOL        -0.0199
     13 C13        21.8060   76.8500   16.6200 C.3       1 MOL        -0.0081
     14 C14        20.6780   76.0040   15.8950 C.3       1 MOL        -0.0310
     15 C15        19.6460   77.0980   15.4420 C.3       1 MOL        -0.0470
     16 C16        19.7800   78.2040   16.5190 C.3       1 MOL        -0.0334
     17 C17        20.8800   77.7280   17.5060 C.3       1 MOL         0.0406
     18 C18        22.6750   77.7830   15.6390 C.3       1 MOL        -0.0568
     19 C19        23.7520   73.6680   13.3210 C.3       1 MOL        -0.1040
     20 C20        21.6520   78.9470   18.1290 C.2       1 MOL         0.1339
     21 C21        22.5500   78.7890   19.3710 C.3       1 MOL         0.1174
     22 O1         22.6890   68.8280   13.9600 O.2       1 MOL        -0.2667
     23 O2         24.3580   75.4270   15.5940 O.3       1 MOL        -0.3929
     24 O3         21.5680   80.0840   17.6150 O.2       1 MOL        -0.3888
     25 O4         23.5580   79.7860   19.4620 O.3       1 MOL        -0.3757
     26 H1         24.7778   72.4250   15.6494 H         1 MOL         0.0521
     27 H2         24.6902   70.0163   15.3561 H         1 MOL         0.1206
     28 H3         20.8515   70.5472   12.9695 H         1 MOL         0.1051
     29 H4         19.8275   72.5147   12.7610 H         1 MOL         0.0435
     30 H5         21.0597   73.6945   12.1984 H         1 MOL         0.0435
     31 H6         19.5726   73.6416   14.8718 H         1 MOL         0.0292
     32 H7         19.4973   74.9007   13.5928 H         1 MOL         0.0292
     33 H8         21.8090   75.5863   14.0954 H         1 MOL         0.0295
     34 H9         21.7020   73.4024   16.2571 H         1 MOL         0.0155
     35 H10        23.9151   74.0092   16.9940 H         1 MOL         0.0582
     36 H11        23.5972   76.3756   17.8431 H         1 MOL         0.0297
     37 H12        22.2041   75.2810   18.1396 H         1 MOL         0.0297
     38 H13        20.1735   75.3778   16.6456 H         1 MOL         0.0310
     39 H14        18.6247   76.6897   15.4251 H         1 MOL         0.0270
     40 H15        19.9013   77.4886   14.4459 H         1 MOL         0.0270
     41 H16        18.8252   78.3358   17.0491 H         1 MOL         0.0293
     42 H17        20.0745   79.1554   16.0520 H         1 MOL         0.0293
     43 H18        20.4408   77.1292   18.3175 H         1 MOL         0.0536
     44 H19        23.3270   77.1530   15.0161 H         1 MOL         0.0237
     45 H20        23.2917   78.4699   16.2372 H         1 MOL         0.0237
     46 H21        22.0006   78.3640   14.9928 H         1 MOL         0.0237
     47 H22        24.1418   72.8833   12.6559 H         1 MOL         0.0056
     48 H23        24.5910   74.2375   13.7472 H         1 MOL         0.0056
     49 H24        23.1027   74.3457   12.7473 H         1 MOL         0.0056
     50 H25        23.0360   77.8031   19.3282 H         1 MOL         0.0792
     51 H26        21.9180   78.8476   20.2694 H         1 MOL         0.0792
     52 H27        24.7452   74.8041   14.9904 H         1 MOL         0.2097
     53 H28        23.1508   80.6431   19.5083 H         1 MOL         0.2130
@<TRIPOS>BOND
     1    1    2 2  
     2    1   10 1  
     3    2    3 1  
     4    3    4 1  
     5    3   22 2  
     6    4    5 2  
     7    5    6 1  
     8    5   10 1  
     9    6    7 1  
    10    7    8 1  
    11    8    9 1  
    12    8   14 1  
    13    9   10 1  
    14    9   11 1  
    15   10   19 1  
    16   11   12 1  
    17   11   23 1  
    18   12   13 1  
    19   13   14 1  
    20   13   17 1  
    21   13   18 1  
    22   14   15 1  
    23   15   16 1  
    24   16   17 1  
    25   17   20 1  
    26   20   21 1  
    27   20   24 2  
    28   21   25 1  
    29    1   26 1  
    30    2   27 1  
    31    4   28 1  
    32    6   29 1  
    33    6   30 1  
    34    7   31 1  
    35    7   32 1  
    36    8   33 1  
    37    9   34 1  
    38   11   35 1  
    39   12   36 1  
    40   12   37 1  
    41   14   38 1  
    42   15   39 1  
    43   15   40 1  
    44   16   41 1  
    45   16   42 1  
    46   17   43 1  
    47   18   44 1  
    48   18   45 1  
    49   18   46 1  
    50   19   47 1  
    51   19   48 1  
    52   19   49 1  
    53   21   50 1  
    54   21   51 1  
    55   23   52 1  
    56   25   53 1  
@<TRIPOS>SUBSTRUCTURE
     1 MOL         1

