### 
### Created by X-TOOL on Fri Sep 26 17:34:31 2014
### 

@<TRIPOS>MOLECULE
2cia_ligand
  132   133     1     0     0
SMALL
GAST_HUCK


@<TRIPOS>ATOM
      1 C          19.1590   54.9670   33.2270 C.2       1 ACE         0.1752
      2 O          20.1080   55.4830   33.8570 O.2       1 ACE        -0.3972
      3 CH3        17.8610   54.7110   33.9580 C.3       1 ACE         0.0258
      4 N          19.1880   54.8160   31.8720 N.am      1 ACE        -0.2640
      5 CA         18.1160   54.1300   31.0820 C.3       1 ACE         0.1420
      6 C          18.3710   52.6800   30.6330 C.2       1 ACE         0.2060
      7 O          19.3430   52.3700   29.9070 O.2       1 ACE        -0.3942
      8 CB         17.7400   54.8710   29.8250 C.3       1 ACE         0.0427
      9 CG         17.0700   56.1730   30.0680 C.2       1 ACE         0.0561
     10 ND1        16.9320   57.1300   29.0890 N.pl3     1 ACE        -0.2623
     11 CD2        16.5570   56.7060   31.2050 C.2       1 ACE        -0.0276
     12 CE1        16.3200   58.1850   29.6070 C.2       1 ACE         0.0875
     13 NE2        16.0910   57.9530   30.8920 N.2       1 ACE        -0.3437
     14 N          17.4410   51.8190   31.0190 N.am      1 ACE        -0.2633
     15 CA         17.5060   50.3990   30.6870 C.3       1 ACE         0.1335
     16 C          16.5410   50.1300   29.5510 C.2       1 ACE         0.2044
     17 O          15.3910   50.6220   29.5680 O.2       1 ACE        -0.3944
     18 CB         17.1340   49.5220   31.8980 C.3       1 ACE        -0.0037
     19 CG1        17.9420   49.9360   33.1300 C.3       1 ACE        -0.0491
     20 CG2        17.3650   48.0500   31.5910 C.3       1 ACE        -0.0582
     21 CD1        19.4170   49.9050   32.9110 C.3       1 ACE        -0.0648
     22 N          16.9950   49.3560   28.5500 N.am      1 ACE        -0.2607
     23 CA         16.1710   49.0120   27.3840 C.3       1 ACE         0.1468
     24 C          15.6910   47.5840   27.4500 C.2       1 ACE         0.2075
     25 O          16.3520   46.7240   28.0310 O.2       1 ACE        -0.3941
     26 CB         16.8950   49.2620   26.0740 C.3       1 ACE         0.0400
     27 CG         17.0370   50.7450   25.7500 C.ar      1 ACE        -0.0004
     28 CD1        18.0650   51.4890   26.3040 C.ar      1 ACE        -0.0239
     29 CD2        16.1860   51.3830   24.8610 C.ar      1 ACE        -0.0239
     30 CE1        18.2130   52.8480   26.0090 C.ar      1 ACE         0.0115
     31 CE2        16.2950   52.7480   24.5670 C.ar      1 ACE         0.0115
     32 CZ         17.3360   53.4760   25.1410 C.ar      1 ACE         0.1728
     33 OH         17.4660   54.7260   24.8150 O.3       1 ACE        -0.2040
     34 P          16.7340   55.9440   25.5870 P.3       1 ACE         0.1348
     35 O1P        17.6800   56.4960   26.5600 O.co2     1 ACE        -0.6653
     36 O2P        15.4700   55.3930   26.2170 O.co2     1 ACE        -0.6653
     37 O3P        16.4230   56.8770   24.4520 O.co2     1 ACE        -0.6653
     38 N          14.5190   47.3480   26.8640 N.am      1 ACE        -0.2619
     39 CA         13.9240   46.0500   26.8130 C.3       1 ACE         0.1423
     40 C          14.5580   45.2300   25.7400 C.2       1 ACE         0.2056
     41 O          15.0810   45.7530   24.7650 O.2       1 ACE        -0.3943
     42 CB         12.4380   46.2140   26.5540 C.3       1 ACE         0.0406
     43 CG         11.7440   46.9190   27.6880 C.2       1 ACE         0.0393
     44 OD1        11.4750   46.2500   28.7040 O.co2     1 ACE        -0.5688
     45 OD2        11.5240   48.1430   27.5470 O.co2     1 ACE        -0.5688
     46 N          14.5090   43.9100   25.9290 N.am      1 ACE        -0.2635
     47 CA         15.1000   42.9640   24.9880 C.3       1 ACE         0.1325
     48 C          14.1820   42.7360   23.7960 C.2       1 ACE         0.2040
     49 O          13.0400   42.3660   23.9740 O.2       1 ACE        -0.3944
     50 CB         15.3080   41.6460   25.7000 C.3       1 ACE        -0.0008
     51 CG         16.0100   40.6030   24.8680 C.3       1 ACE         0.0044
     52 CD         16.0890   39.2450   25.5340 C.2       1 ACE         0.0350
     53 OE1        15.2310   38.8980   26.3870 O.co2     1 ACE        -0.5690
     54 OE2        17.0100   38.5170   25.1660 O.co2     1 ACE        -0.5690
     55 N          14.6350   43.0490   22.5750 N.am      1 ACE        -0.2635
     56 CA         13.8320   42.7570   21.3630 C.3       1 ACE         0.1332
     57 C          13.6710   41.2670   21.1430 C.2       1 ACE         0.2041
     58 O          14.5920   40.4730   21.4380 O.2       1 ACE        -0.3944
     59 CB         14.4400   43.3120   20.0750 C.3       1 ACE        -0.0063
     60 CG1        14.2570   44.7780   20.0260 C.3       1 ACE        -0.0584
     61 CG2        15.8740   42.9250   19.9490 C.3       1 ACE        -0.0584
     62 N          12.5110   40.8540   20.6200 N.am      1 ACE        -0.2640
     63 CA         12.2210   39.4110   20.3640 C.3       1 ACE         0.1282
     64 C          13.0120   38.9300   19.2030 C.2       1 ACE         0.2036
     65 O          13.1300   39.6420   18.2440 O.2       1 ACE        -0.3944
     66 CB         10.7520   39.2080   20.0270 C.3       1 ACE        -0.0244
     67 N          13.5360   37.7040   19.2850 N.am      1 ACE        -0.2640
     68 CA         14.2740   37.0880   18.1720 C.3       1 ACE         0.1279
     69 C          13.3010   36.4070   17.2150 C.2       1 ACE         0.1989
     70 O          12.0890   36.3390   17.4160 O.2       1 ACE        -0.3947
     71 CB         15.2730   36.0940   18.6910 C.3       1 ACE        -0.0244
     72 N          13.6980   35.9160   16.1850 N.am      1 ACE        -0.2990
     73 H1         17.1347   54.2573   33.2676 H         1 ACE         0.0467
     74 H2         17.4605   55.6623   34.3383 H         1 ACE         0.0467
     75 H3         18.0431   54.0271   34.8000 H         1 ACE         0.0467
     76 H4         19.9731   55.1859   31.3753 H         1 ACE         0.1884
     77 H5         17.2345   54.1114   31.7397 H         1 ACE         0.0824
     78 H6         17.0589   54.2357   29.2398 H         1 ACE         0.0491
     79 H7         18.6566   55.0567   29.2459 H         1 ACE         0.0491
     80 H8         17.2518   57.0410   28.1140 H         1 ACE         0.2386
     81 H9         16.5227   56.2300   32.1839 H         1 ACE         0.0324
     82 H10        16.0501   59.0915   29.0672 H         1 ACE         0.1149
     83 H11        16.6672   52.1537   31.5568 H         1 ACE         0.1883
     84 H12        18.5285   50.1498   30.3672 H         1 ACE         0.0803
     85 H13        16.0658   49.6682   32.1162 H         1 ACE         0.0345
     86 H14        17.6977   49.2492   33.9538 H         1 ACE         0.0267
     87 H15        17.6527   50.9601   33.4084 H         1 ACE         0.0267
     88 H16        16.7798   47.7641   30.7045 H         1 ACE         0.0235
     89 H17        17.0482   47.4419   32.4511 H         1 ACE         0.0235
     90 H18        18.4339   47.8796   31.3953 H         1 ACE         0.0235
     91 H19        19.9312   50.2126   33.8335 H         1 ACE         0.0230
     92 H20        19.6813   50.5952   32.0963 H         1 ACE         0.0230
     93 H21        19.7264   48.8843   32.6417 H         1 ACE         0.0230
     94 H22        17.9286   49.0013   28.6012 H         1 ACE         0.1886
     95 H23        15.2857   49.6646   27.4041 H         1 ACE         0.0840
     96 H24        16.3312   48.7777   25.2631 H         1 ACE         0.0584
     97 H25        17.8997   48.8186   26.1377 H         1 ACE         0.0584
     98 H26        18.7666   51.0102   26.9775 H         1 ACE         0.0703
     99 H27        15.4081   50.8046   24.3759 H         1 ACE         0.0703
    100 H28        19.0192   53.4131   26.4627 H         1 ACE         0.0736
    101 H29        15.5835   53.2292   23.9057 H         1 ACE         0.0736
    102 H30        14.0337   48.1131   26.4408 H         1 ACE         0.1885
    103 H31        14.0699   45.5450   27.7793 H         1 ACE         0.0819
    104 H32        11.9876   45.2187   26.4256 H         1 ACE         0.0478
    105 H33        12.3002   46.8004   25.6336 H         1 ACE         0.0478
    106 H34        14.0509   43.5564   26.7446 H         1 ACE         0.1883
    107 H35        16.0659   43.3545   24.6350 H         1 ACE         0.0801
    108 H36        14.3235   41.2510   25.9909 H         1 ACE         0.0330
    109 H37        15.9099   41.8314   26.6019 H         1 ACE         0.0330
    110 H38        17.0338   40.9509   24.6663 H         1 ACE         0.0433
    111 H39        15.4664   40.4928   23.9181 H         1 ACE         0.0433
    112 H40        15.5290   43.4866   22.4792 H         1 ACE         0.1883
    113 H41        12.8391   43.2082   21.5061 H         1 ACE         0.0802
    114 H42        13.8987   42.8735   19.2237 H         1 ACE         0.0343
    115 H43        14.6963   45.1715   19.0974 H         1 ACE         0.0234
    116 H44        14.7555   45.2389   20.8915 H         1 ACE         0.0234
    117 H45        13.1831   45.0146   20.0525 H         1 ACE         0.0234
    118 H46        15.9631   41.8294   19.9904 H         1 ACE         0.0234
    119 H47        16.4481   43.3710   20.7745 H         1 ACE         0.0234
    120 H48        16.2691   43.2889   18.9891 H         1 ACE         0.0234
    121 H49        11.8143   41.5344   20.3927 H         1 ACE         0.1883
    122 H50        12.4798   38.8268   21.2594 H         1 ACE         0.0797
    123 H51        10.5623   38.1403   19.8428 H         1 ACE         0.0277
    124 H52        10.4992   39.7861   19.1259 H         1 ACE         0.0277
    125 H53        10.1320   39.5507   20.8685 H         1 ACE         0.0277
    126 H54        13.4224   37.1867   20.1333 H         1 ACE         0.1883
    127 H55        14.8130   37.8767   17.6266 H         1 ACE         0.0797
    128 H56        15.8150   35.6438   17.8463 H         1 ACE         0.0277
    129 H57        14.7490   35.3062   19.2521 H         1 ACE         0.0277
    130 H58        15.9868   36.6039   19.3547 H         1 ACE         0.0277
    131 H59        13.0542   35.4712   15.5624 H         1 ACE         0.1815
    132 H60        14.6704   35.9544   15.9550 H         1 ACE         0.1815
@<TRIPOS>BOND
     1    1    2 2  
     2    1    3 1  
     3    1    4 am 
     4    4    5 1  
     5    5    6 1  
     6    5    8 1  
     7    6    7 2  
     8    6   14 am 
     9    8    9 1  
    10    9   10 1  
    11    9   11 2  
    12   10   12 1  
    13   11   13 1  
    14   12   13 2  
    15   14   15 1  
    16   15   16 1  
    17   15   18 1  
    18   16   17 2  
    19   16   22 am 
    20   18   19 1  
    21   18   20 1  
    22   19   21 1  
    23   22   23 1  
    24   23   24 1  
    25   23   26 1  
    26   24   25 2  
    27   24   38 am 
    28   26   27 1  
    29   27   28 ar 
    30   27   29 ar 
    31   28   30 ar 
    32   29   31 ar 
    33   30   32 ar 
    34   31   32 ar 
    35   32   33 1  
    36   33   34 1  
    37   34   35 ar 
    38   34   36 ar 
    39   34   37 ar 
    40   38   39 1  
    41   39   40 1  
    42   39   42 1  
    43   40   41 2  
    44   40   46 am 
    45   42   43 1  
    46   43   44 ar 
    47   43   45 ar 
    48   46   47 1  
    49   47   48 1  
    50   47   50 1  
    51   48   49 2  
    52   48   55 am 
    53   50   51 1  
    54   51   52 1  
    55   52   53 ar 
    56   52   54 ar 
    57   55   56 1  
    58   56   57 1  
    59   56   59 1  
    60   57   58 2  
    61   57   62 am 
    62   59   60 1  
    63   59   61 1  
    64   62   63 1  
    65   63   64 1  
    66   63   66 1  
    67   64   65 2  
    68   64   67 am 
    69   67   68 1  
    70   68   69 1  
    71   68   71 1  
    72   69   70 2  
    73   69   72 am 
    74    3   73 1  
    75    3   74 1  
    76    3   75 1  
    77    4   76 1  
    78    5   77 1  
    79    8   78 1  
    80    8   79 1  
    81   10   80 1  
    82   11   81 1  
    83   12   82 1  
    84   14   83 1  
    85   15   84 1  
    86   18   85 1  
    87   19   86 1  
    88   19   87 1  
    89   20   88 1  
    90   20   89 1  
    91   20   90 1  
    92   21   91 1  
    93   21   92 1  
    94   21   93 1  
    95   22   94 1  
    96   23   95 1  
    97   26   96 1  
    98   26   97 1  
    99   28   98 1  
   100   29   99 1  
   101   30  100 1  
   102   31  101 1  
   103   38  102 1  
   104   39  103 1  
   105   42  104 1  
   106   42  105 1  
   107   46  106 1  
   108   47  107 1  
   109   50  108 1  
   110   50  109 1  
   111   51  110 1  
   112   51  111 1  
   113   55  112 1  
   114   56  113 1  
   115   59  114 1  
   116   60  115 1  
   117   60  116 1  
   118   60  117 1  
   119   61  118 1  
   120   61  119 1  
   121   61  120 1  
   122   62  121 1  
   123   63  122 1  
   124   66  123 1  
   125   66  124 1  
   126   66  125 1  
   127   67  126 1  
   128   68  127 1  
   129   71  128 1  
   130   71  129 1  
   131   71  130 1  
   132   72  131 1  
   133   72  132 1  
@<TRIPOS>SUBSTRUCTURE
     1 ACE         1

