### 
### Created by X-TOOL on Fri Sep 26 17:34:41 2014
### 

@<TRIPOS>MOLECULE
3b78_ligand
   70    74     1     0     0
SMALL
GAST_HUCK


@<TRIPOS>ATOM
      1 PA          3.7620   -5.3720   94.4750 P.3       1 NAD         0.2972
      2 O1A         2.2870   -5.2010   94.7260 O.co2     1 NAD        -0.6127
      3 O2A         4.6360   -5.8490   95.6040 O.co2     1 NAD        -0.6127
      4 O5B         4.2930   -3.9290   93.9930 O.3       1 NAD        -0.2476
      5 C5B         3.4220   -3.2210   93.0910 C.3       1 NAD         0.1128
      6 C4B         4.1230   -2.8800   91.7620 C.3       1 NAD         0.1189
      7 O4B         4.6410   -1.5330   91.7140 O.3       1 NAD        -0.3364
      8 C3B         5.2890   -3.8210   91.3980 C.3       1 NAD         0.1149
      9 O3B         4.8760   -4.7230   90.3630 O.3       1 NAD        -0.3864
     10 C2B         6.3130   -2.8830   90.7790 C.3       1 NAD         0.1385
     11 O2B         6.7390   -3.3910   89.5120 O.3       1 NAD        -0.3836
     12 C1B         5.5290   -1.5840   90.5980 C.3       1 NAD         0.2010
     13 N9A         6.3730   -0.3750   90.4680 N.pl3     1 NAD        -0.1919
     14 C8A         6.2380    0.5640   89.5310 C.2       1 NAD         0.1123
     15 N7A         7.1600    1.5320   89.7260 N.2       1 NAD        -0.2958
     16 C5A         7.8710    1.1870   90.8200 C.ar      1 NAD         0.1045
     17 C6A         8.9290    1.7650   91.5060 C.ar      1 NAD         0.1298
     18 N6A         9.4530    2.9400   91.0760 N.pl3     1 NAD        -0.3152
     19 N1A         9.4190    1.1360   92.5980 N.ar      1 NAD        -0.2698
     20 C2A         8.9060   -0.0220   93.0250 C.ar      1 NAD         0.0533
     21 N3A         7.8870   -0.6010   92.3850 N.ar      1 NAD        -0.2714
     22 C4A         7.3530   -0.0100   91.2890 C.ar      1 NAD         0.1613
     23 O3          3.9660   -6.3000   93.1750 O.3       1 NAD        -0.1319
     24 PN          5.2140   -7.3020   92.9890 P.3       1 NAD         0.2972
     25 O1N         6.2910   -7.0040   94.0040 O.co2     1 NAD        -0.6127
     26 O2N         5.5610   -7.3820   91.5230 O.co2     1 NAD        -0.6127
     27 O5D         4.5140   -8.6900   93.4000 O.3       1 NAD        -0.2476
     28 C5D         4.3640   -8.9310   94.7970 C.3       1 NAD         0.1127
     29 C4D         4.2410  -10.4180   95.0850 C.3       1 NAD         0.1175
     30 O4D         4.8310  -11.1980   94.0470 O.3       1 NAD        -0.3489
     31 C3D         4.9940  -10.7160   96.3640 C.3       1 NAD         0.1134
     32 O3D         4.0690  -10.9040   97.4390 O.3       1 NAD        -0.3864
     33 C2D         5.8000  -11.9660   96.0730 C.3       1 NAD         0.1245
     34 O2D         5.2630  -13.0810   96.7980 O.3       1 NAD        -0.3851
     35 C1D         5.6780  -12.2200   94.5790 C.3       1 NAD         0.1576
     36 N1N         6.9890  -12.1140   93.9260 N.ar      1 NAD        -0.2936
     37 C2N         7.1530  -11.2300   92.9300 C.ar      1 NAD         0.0671
     38 C3N         8.3740  -11.0990   92.2720 C.ar      1 NAD         0.1587
     39 C7N         8.5330  -10.1010   91.1580 C.2       1 NAD         0.3690
     40 O7N         9.4720  -10.2110   90.3890 O.2       1 NAD        -0.2307
     41 N7N         7.6340   -9.1300   91.0200 N.am      1 NAD        -0.2274
     42 C4N         9.4360  -11.9110   92.6480 C.ar      1 NAD         0.0203
     43 C5N         9.2440  -12.8260   93.6770 C.ar      1 NAD         0.0100
     44 C6N         7.9990  -12.9150   94.2950 C.ar      1 NAD         0.0432
     45 H           3.1225   -2.2878   93.5680 H         1 NAD         0.0648
     46 H           2.5663   -3.8595   92.8714 H         1 NAD         0.0648
     47 H           3.3176   -3.0036   91.0380 H         1 NAD         0.0651
     48 H           5.6445   -4.3944   92.2541 H         1 NAD         0.0648
     49 H           5.6045   -5.3068   90.1394 H         1 NAD         0.2100
     50 H           7.2118   -2.7595   91.3832 H         1 NAD         0.0676
     51 H           5.9817   -3.4633   88.9265 H         1 NAD         0.2101
     52 H           4.9911   -1.5868   89.6500 H         1 NAD         0.0996
     53 H           5.4978    0.5524   88.7310 H         1 NAD         0.1349
     54 H           9.0690    3.3974   90.2491 H         1 NAD         0.1820
     55 H          10.2310    3.3661   91.5795 H         1 NAD         0.1820
     56 H           9.3259   -0.5012   93.9094 H         1 NAD         0.0996
     57 H           3.4580   -8.4326   95.1418 H         1 NAD         0.0648
     58 H           5.2435   -8.5470   95.3138 H         1 NAD         0.0648
     59 H           3.1830  -10.6684   95.1623 H         1 NAD         0.0650
     60 H           5.6506   -9.9016   96.6702 H         1 NAD         0.0647
     61 H           3.4871  -11.6396   97.2340 H         1 NAD         0.2100
     62 H           6.8401  -11.8398   96.3737 H         1 NAD         0.0660
     63 H           5.2978  -12.8959   97.7393 H         1 NAD         0.2101
     64 H           5.2791  -13.2194   94.4051 H         1 NAD         0.0811
     65 H           6.3143  -10.6019   92.6297 H         1 NAD         0.1162
     66 H           7.7224   -8.4576   90.2581 H         1 NAD         0.2875
     67 H           6.8563   -9.0580   91.6761 H         1 NAD         0.2875
     68 H          10.4006  -11.8326   92.1465 H         1 NAD         0.0911
     69 H          10.0628  -13.4698   93.9981 H         1 NAD         0.0924
     70 H           7.8437  -13.6454   95.0890 H         1 NAD         0.1187
@<TRIPOS>BOND
     1    1    2 ar 
     2    1    3 ar 
     3    1    4 1  
     4    1   23 1  
     5    4    5 1  
     6    5    6 1  
     7    6    7 1  
     8    6    8 1  
     9    7   12 1  
    10    8    9 1  
    11    8   10 1  
    12   10   11 1  
    13   10   12 1  
    14   12   13 1  
    15   13   14 1  
    16   13   22 1  
    17   14   15 2  
    18   15   16 1  
    19   16   17 ar 
    20   16   22 ar 
    21   17   18 1  
    22   17   19 ar 
    23   19   20 ar 
    24   20   21 ar 
    25   21   22 ar 
    26   23   24 1  
    27   24   25 ar 
    28   24   26 ar 
    29   24   27 1  
    30   27   28 1  
    31   28   29 1  
    32   29   30 1  
    33   29   31 1  
    34   30   35 1  
    35   31   32 1  
    36   31   33 1  
    37   33   34 1  
    38   33   35 1  
    39   35   36 1  
    40   36   37 ar 
    41   36   44 ar 
    42   37   38 ar 
    43   38   39 1  
    44   38   42 ar 
    45   39   40 2  
    46   39   41 am 
    47   42   43 ar 
    48   43   44 ar 
    49    5   45 1  
    50    5   46 1  
    51    6   47 1  
    52    8   48 1  
    53    9   49 1  
    54   10   50 1  
    55   11   51 1  
    56   12   52 1  
    57   14   53 1  
    58   18   54 1  
    59   18   55 1  
    60   20   56 1  
    61   28   57 1  
    62   28   58 1  
    63   29   59 1  
    64   31   60 1  
    65   32   61 1  
    66   33   62 1  
    67   34   63 1  
    68   35   64 1  
    69   37   65 1  
    70   41   66 1  
    71   41   67 1  
    72   42   68 1  
    73   43   69 1  
    74   44   70 1  
@<TRIPOS>SUBSTRUCTURE
     1 NAD         1

