### 
### Created by X-TOOL on Fri Sep 26 17:34:41 2014
### 

@<TRIPOS>MOLECULE
3b8h_ligand
   70    74     1     0     0
SMALL
GAST_HUCK


@<TRIPOS>ATOM
      1 PA          3.5920   -5.3490   94.8520 P.3       1 NAD         0.2972
      2 O1A         2.1670   -5.0600   95.2540 O.co2     1 NAD        -0.6127
      3 O2A         4.5770   -5.8150   95.8990 O.co2     1 NAD        -0.6127
      4 O5B         4.1380   -3.9960   94.1880 O.3       1 NAD        -0.2476
      5 C5B         3.2550   -3.2870   93.3450 C.3       1 NAD         0.1128
      6 C4B         3.8720   -2.9040   92.0110 C.3       1 NAD         0.1189
      7 O4B         4.3750   -1.5660   91.9670 O.3       1 NAD        -0.3364
      8 C3B         5.0000   -3.8080   91.5450 C.3       1 NAD         0.1149
      9 O3B         4.5610   -4.6010   90.4500 O.3       1 NAD        -0.3864
     10 C2B         6.0690   -2.8770   91.0350 C.3       1 NAD         0.1385
     11 O2B         6.5670   -3.3490   89.7820 O.3       1 NAD        -0.3836
     12 C1B         5.2940   -1.5800   90.8780 C.3       1 NAD         0.2010
     13 N9A         6.1480   -0.3740   90.7330 N.pl3     1 NAD        -0.1919
     14 C8A         6.0120    0.5470   89.7660 C.2       1 NAD         0.1123
     15 N7A         6.9440    1.5070   89.9350 N.2       1 NAD        -0.2958
     16 C5A         7.6620    1.1800   91.0280 C.ar      1 NAD         0.1045
     17 C6A         8.7320    1.7760   91.6740 C.ar      1 NAD         0.1298
     18 N6A         9.2470    2.9380   91.1990 N.pl3     1 NAD        -0.3152
     19 N1A         9.2440    1.1820   92.7770 N.ar      1 NAD        -0.2698
     20 C2A         8.7300    0.0350   93.2420 C.ar      1 NAD         0.0533
     21 N3A         7.6980   -0.5600   92.6340 N.ar      1 NAD        -0.2714
     22 C4A         7.1470    0.0000   91.5330 C.ar      1 NAD         0.1613
     23 O3          3.5960   -6.4100   93.6370 O.3       1 NAD        -0.1319
     24 PN          4.8320   -7.4080   93.3430 P.3       1 NAD         0.2972
     25 O1N         6.1420   -6.7110   93.6110 O.co2     1 NAD        -0.6127
     26 O2N         4.5840   -8.0510   92.0060 O.co2     1 NAD        -0.6127
     27 O5D         4.6070   -8.5110   94.4900 O.3       1 NAD        -0.2476
     28 C5D         3.4200   -9.2980   94.4940 C.3       1 NAD         0.1127
     29 C4D         3.6990  -10.6640   95.1000 C.3       1 NAD         0.1175
     30 O4D         4.4730  -11.4360   94.1840 O.3       1 NAD        -0.3489
     31 C3D         4.5020  -10.5830   96.3830 C.3       1 NAD         0.1134
     32 O3D         3.6500  -10.6830   97.5270 O.3       1 NAD        -0.3864
     33 C2D         5.4460  -11.7640   96.3120 C.3       1 NAD         0.1245
     34 O2D         4.9690  -12.8040   97.1740 O.3       1 NAD        -0.3851
     35 C1D         5.4050  -12.2640   94.8770 C.3       1 NAD         0.1576
     36 N1N         6.7160  -12.1380   94.2290 N.ar      1 NAD        -0.2936
     37 C2N         6.8700  -11.2820   93.2060 C.ar      1 NAD         0.0671
     38 C3N         8.0980  -11.1480   92.5600 C.ar      1 NAD         0.1587
     39 C7N         8.2530  -10.1820   91.4160 C.2       1 NAD         0.3690
     40 O7N         9.1570  -10.3360   90.6130 O.2       1 NAD        -0.2307
     41 N7N         7.3840   -9.1840   91.2910 N.am      1 NAD        -0.2274
     42 C4N         9.1730  -11.9250   92.9740 C.ar      1 NAD         0.0203
     43 C5N         8.9880  -12.8100   94.0300 C.ar      1 NAD         0.0100
     44 C6N         7.7380  -12.9060   94.6360 C.ar      1 NAD         0.0432
     45 H           2.9811   -2.3647   93.8573 H         1 NAD         0.0648
     46 H           2.4044   -3.9367   93.1392 H         1 NAD         0.0648
     47 H           3.0192   -3.0133   91.3410 H         1 NAD         0.0651
     48 H           5.3417   -4.4629   92.3465 H         1 NAD         0.0648
     49 H           5.2781   -5.1697   90.1604 H         1 NAD         0.2100
     50 H           6.9432   -2.7821   91.6791 H         1 NAD         0.0676
     51 H           5.8484   -3.3854   89.1466 H         1 NAD         0.2101
     52 H           4.7531   -1.5409   89.9325 H         1 NAD         0.0996
     53 H           5.2669    0.5228   88.9708 H         1 NAD         0.1349
     54 H           8.8460    3.3712   90.3672 H         1 NAD         0.1820
     55 H          10.0352    3.3783   91.6737 H         1 NAD         0.1820
     56 H           9.1613   -0.4217   94.1328 H         1 NAD         0.0996
     57 H           3.0731   -9.4263   93.4687 H         1 NAD         0.0648
     58 H           2.6584   -8.7926   95.0879 H         1 NAD         0.0648
     59 H           2.7285  -11.1124   95.3123 H         1 NAD         0.0650
     60 H           5.0291   -9.6340   96.4810 H         1 NAD         0.0647
     61 H           3.1854  -11.5228   97.5061 H         1 NAD         0.2100
     62 H           6.4545  -11.4824   96.6148 H         1 NAD         0.0660
     63 H           4.9292  -12.4775   98.0759 H         1 NAD         0.2101
     64 H           5.1229  -13.3167   94.8594 H         1 NAD         0.0811
     65 H           6.0217  -10.6826   92.8756 H         1 NAD         0.1162
     66 H           7.4668   -8.5301   90.5125 H         1 NAD         0.2875
     67 H           6.6343   -9.0720   91.9735 H         1 NAD         0.2875
     68 H          10.1415  -11.8423   92.4809 H         1 NAD         0.0911
     69 H           9.8164  -13.4250   94.3815 H         1 NAD         0.0924
     70 H           7.5880  -13.6139   95.4512 H         1 NAD         0.1187
@<TRIPOS>BOND
     1    1    2 ar 
     2    1    3 ar 
     3    1    4 1  
     4    1   23 1  
     5    4    5 1  
     6    5    6 1  
     7    6    7 1  
     8    6    8 1  
     9    7   12 1  
    10    8    9 1  
    11    8   10 1  
    12   10   11 1  
    13   10   12 1  
    14   12   13 1  
    15   13   14 1  
    16   13   22 1  
    17   14   15 2  
    18   15   16 1  
    19   16   17 ar 
    20   16   22 ar 
    21   17   18 1  
    22   17   19 ar 
    23   19   20 ar 
    24   20   21 ar 
    25   21   22 ar 
    26   23   24 1  
    27   24   25 ar 
    28   24   26 ar 
    29   24   27 1  
    30   27   28 1  
    31   28   29 1  
    32   29   30 1  
    33   29   31 1  
    34   30   35 1  
    35   31   32 1  
    36   31   33 1  
    37   33   34 1  
    38   33   35 1  
    39   35   36 1  
    40   36   37 ar 
    41   36   44 ar 
    42   37   38 ar 
    43   38   39 1  
    44   38   42 ar 
    45   39   40 2  
    46   39   41 am 
    47   42   43 ar 
    48   43   44 ar 
    49    5   45 1  
    50    5   46 1  
    51    6   47 1  
    52    8   48 1  
    53    9   49 1  
    54   10   50 1  
    55   11   51 1  
    56   12   52 1  
    57   14   53 1  
    58   18   54 1  
    59   18   55 1  
    60   20   56 1  
    61   28   57 1  
    62   28   58 1  
    63   29   59 1  
    64   31   60 1  
    65   32   61 1  
    66   33   62 1  
    67   34   63 1  
    68   35   64 1  
    69   37   65 1  
    70   41   66 1  
    71   41   67 1  
    72   42   68 1  
    73   43   69 1  
    74   44   70 1  
@<TRIPOS>SUBSTRUCTURE
     1 NAD         1

