### 
### Created by X-TOOL on Fri Sep 26 17:34:41 2014
### 

@<TRIPOS>MOLECULE
3egk_ligand
  140   142     1     0     0
SMALL
GAST_HUCK


@<TRIPOS>ATOM
      1 N           7.6350  -11.6310    0.6270 N.4       1 ASP55       0.2377
      2 CA          6.2590  -11.1470    0.7230 C.3       1 ASP55       0.0621
      3 C           6.1980   -9.6220    0.6590 C.2       1 ASP55       0.2265
      4 O           5.1040   -9.0590    0.6560 O.2       1 ASP55      -0.3907
      5 CB          5.6040  -11.6470    2.0030 C.3       1 ASP55      -0.0040
      6 N           7.3590   -8.9820    0.6040 N.am      1 ASP55      -0.2592
      7 CA          7.4990   -7.5390    0.6120 C.3       1 ASP55       0.1406
      8 C           7.3520   -6.9140   -0.7700 C.2       1 ASP55       0.2060
      9 O           8.2070   -7.1200   -1.6290 O.2       1 ASP55      -0.3942
     10 CB          8.8730   -7.1310    1.1850 C.3       1 ASP55       0.0214
     11 CG          8.8030   -7.1460    2.7080 C.ar      1 ASP55      -0.0386
     12 CD1         9.0830   -8.3120    3.3950 C.ar      1 ASP55      -0.0601
     13 CD2         8.4460   -6.0010    3.3940 C.ar      1 ASP55      -0.0601
     14 CE1         8.9940   -8.3250    4.7770 C.ar      1 ASP55      -0.0686
     15 CE2         8.3600   -6.0040    4.7690 C.ar      1 ASP55      -0.0686
     16 CZ          8.6350   -7.1740    5.4550 C.ar      1 ASP55      -0.0687
     17 N           6.2830   -6.1540   -0.9530 N.am      1 ASP55      -0.2635
     18 CA          6.0840   -5.3760   -2.1650 C.3       1 ASP55       0.1325
     19 C           7.3620   -4.5910   -2.4750 C.2       1 ASP55       0.2040
     20 O           8.0360   -4.1290   -1.5580 O.2       1 ASP55      -0.3944
     21 CB          4.8850   -4.4400   -2.0300 C.3       1 ASP55      -0.0008
     22 CG          5.0060   -3.1130   -2.7660 C.3       1 ASP55       0.0044
     23 CD          3.6550   -2.5200   -3.1240 C.2       1 ASP55       0.0350
     24 OE1         2.7340   -2.5680   -2.2840 O.co2     1 ASP55      -0.5690
     25 OE2         3.5080   -2.0080   -4.2540 O.co2     1 ASP55      -0.5690
     26 N           7.6280   -4.4840   -3.7580 N.am      1 ASP55      -0.2640
     27 CA          8.7730   -3.8980   -4.4190 C.3       1 ASP55       0.1282
     28 C           9.0150   -2.4430   -4.0490 C.2       1 ASP55       0.2036
     29 O           8.2510   -1.5450   -4.3990 O.2       1 ASP55      -0.3944
     30 CB          8.6040   -3.9980   -5.9390 C.3       1 ASP55      -0.0244
     31 N          10.1160   -2.1990   -3.3430 N.am      1 ASP55      -0.2635
     32 CA         10.4640   -0.8000   -3.1140 C.3       1 ASP55       0.1337
     33 C          11.0190   -0.2570   -4.4240 C.2       1 ASP55       0.2067
     34 O          11.4670   -1.0640   -5.2440 O.2       1 ASP55      -0.3942
     35 CB         11.4970   -0.6250   -2.0050 C.3       1 ASP55      -0.0037
     36 CG1        12.9340   -0.7990   -2.5120 C.3       1 ASP55      -0.0491
     37 CG2        11.2110   -1.5560   -0.8440 C.3       1 ASP55      -0.0582
     38 CD1        13.9450   -0.5620   -1.4130 C.3       1 ASP55      -0.0648
     39 N          10.9890    1.0490   -4.6200 N.am      1 ASP55      -0.2498
     40 CA         11.3790    1.5820   -5.9340 C.3       1 ASP55       0.1338
     41 C          12.8070    1.1690   -6.2450 C.2       1 ASP55       0.2041
     42 O          13.6030    0.9190   -5.3400 O.2       1 ASP55      -0.3944
     43 CB         11.2420    3.0920   -5.7690 C.3       1 ASP55      -0.0104
     44 CG         10.3160    3.2590   -4.6080 C.3       1 ASP55      -0.0281
     45 CD         10.6180    2.1140   -3.6780 C.3       1 ASP55       0.0369
     46 N          13.1450    1.0600   -7.5290 N.am      1 ASP55      -0.2640
     47 CA         14.5020    0.6230   -7.8560 C.3       1 ASP55       0.1282
     48 C          15.5010    1.7050   -7.4720 C.2       1 ASP55       0.2035
     49 O          16.6850    1.4440   -7.2780 O.2       1 ASP55      -0.3944
     50 CB         14.6270    0.2700   -9.3290 C.3       1 ASP55      -0.0244
     51 N          15.0200    2.9380   -7.3540 N.am      1 ASP55      -0.2645
     52 CA         15.9100    4.0650   -7.1150 C.3       1 ASP55       0.1360
     53 C          16.4010    4.1520   -5.6770 C.2       1 ASP55       0.2526
     54 O          16.9250    5.1990   -5.2650 O.2       1 ASP55      -0.3327
     55 CB         15.1770    5.3530   -7.5100 C.3       1 ASP55      -0.0017
     56 CG         13.8060    5.4660   -6.8580 C.3       1 ASP55       0.0042
     57 CD         13.8190    6.5620   -5.8020 C.2       1 ASP55       0.0350
     58 OE1        12.8340    6.6640   -5.0470 O.co2     1 ASP55      -0.5690
     59 OE2        14.8220    7.3060   -5.7590 O.co2     1 ASP55      -0.5690
     60 N          16.2550    3.0770   -4.9180 N.2       1 ASP55      -0.1998
     61 CA         16.7370    3.0590   -3.5010 C.3       1 ASP55       0.1687
     62 CB         15.5690    2.7660   -2.5480 C.3       1 ASP55       0.0179
     63 CG         14.6510    3.9630   -2.4460 C.ar      1 ASP55      -0.0493
     64 CD1        15.1570    5.2420   -2.0960 C.ar      1 ASP55      -0.0684
     65 CD2        13.2880    3.8060   -2.7470 C.ar      1 ASP55      -0.0684
     66 CE1        14.2830    6.3450   -1.9950 C.ar      1 ASP55      -0.0372
     67 CE2        12.4180    4.9090   -2.6870 C.ar      1 ASP55      -0.0372
     68 CZ         12.9130    6.1820   -2.3150 C.ar      1 ASP55       0.1129
     69 OH         12.0640    7.2500   -2.2500 O.3       1 ASP55      -0.2030
     70 S          11.0700    7.2400   -1.0770 S.o2      1 ASP55      -0.0526
     71 O1         11.6470    7.6040   -0.0930 O.co2     1 ASP55      -0.4580
     72 O2         10.4130    8.4880   -1.2190 O.co2     1 ASP55      -0.4580
     73 O3         10.3620    5.9920   -1.1260 O.co2     1 ASP55      -0.4580
     74 C          17.8350    2.0510   -3.2230 C.2       1 ASP55       0.2590
     75 O          18.2100    1.3070   -4.0970 O.2       1 ASP55      -0.3680
     76 O4         18.3861    1.9862   -2.0143 O.3       1 ASP55      -0.2909
     77 H1          7.6409  -12.6380    0.6722 H         1 ASP55       0.2015
     78 H2          8.1767  -11.2573    1.3905 H         1 ASP55       0.2015
     79 H3          8.0362  -11.3316   -0.2479 H         1 ASP55       0.2015
     80 H4          5.6959  -11.5482   -0.1326 H         1 ASP55       0.1095
     81 H5          4.5710  -11.2727    2.0566 H         1 ASP55       0.0310
     82 H6          6.1716  -11.2825    2.8719 H         1 ASP55       0.0310
     83 H7          5.5960  -12.7470    2.0054 H         1 ASP55       0.0310
     84 H8          8.1929   -9.5315    0.5537 H         1 ASP55       0.1886
     85 H9          6.7103   -7.1290    1.2599 H         1 ASP55       0.0823
     86 H10         9.1311   -6.1195    0.8382 H         1 ASP55       0.0474
     87 H11         9.6400   -7.8422    0.8446 H         1 ASP55       0.0474
     88 H12         9.3697   -9.2083    2.8570 H         1 ASP55       0.0557
     89 H13         8.2315   -5.0913    2.8449 H         1 ASP55       0.0557
     90 H14         9.2052   -9.2353    5.3263 H         1 ASP55       0.0599
     91 H15         8.0813   -5.1040    5.3051 H         1 ASP55       0.0599
     92 H16         8.5683   -7.1886    6.5368 H         1 ASP55       0.0559
     93 H17         5.5896   -6.1139   -0.2336 H         1 ASP55       0.1883
     94 H18         5.8873   -6.0682   -2.9969 H         1 ASP55       0.0801
     95 H19         4.7424   -4.2233   -0.9610 H         1 ASP55       0.0330
     96 H20         3.9998   -4.9643   -2.4192 H         1 ASP55       0.0330
     97 H21         5.5767   -3.2744   -3.6924 H         1 ASP55       0.0433
     98 H22         5.5442   -2.4010   -2.1230 H         1 ASP55       0.0433
     99 H23         6.9341   -4.8652   -4.3688 H         1 ASP55       0.1883
    100 H24         9.6618   -4.4750   -4.1238 H         1 ASP55       0.0797
    101 H25         9.4779   -3.5507   -6.4353 H         1 ASP55       0.0277
    102 H26         7.6942   -3.4596   -6.2430 H         1 ASP55       0.0277
    103 H27         8.5187   -5.0554   -6.2297 H         1 ASP55       0.0277
    104 H28        10.6809   -2.9422   -2.9846 H         1 ASP55       0.1883
    105 H29         9.5559   -0.2441   -2.8377 H         1 ASP55       0.0803
    106 H30        11.4051    0.4061   -1.6330 H         1 ASP55       0.0345
    107 H31        13.1152   -0.0802   -3.3247 H         1 ASP55       0.0267
    108 H32        13.0560   -1.8232   -2.8943 H         1 ASP55       0.0267
    109 H33        10.1757   -1.4089   -0.5026 H         1 ASP55       0.0235
    110 H34        11.9040   -1.3363   -0.0185 H         1 ASP55       0.0235
    111 H35        11.3455   -2.5985   -1.1682 H         1 ASP55       0.0235
    112 H36        14.9606   -0.6955   -1.8140 H         1 ASP55       0.0230
    113 H37        13.7754   -1.2805   -0.5976 H         1 ASP55       0.0230
    114 H38        13.8346    0.4625   -1.0279 H         1 ASP55       0.0230
    115 H39        10.7094    1.2159   -6.7262 H         1 ASP55       0.0802
    116 H40        10.8144    3.5450   -6.6756 H         1 ASP55       0.0313
    117 H41        12.2191    3.5501   -5.5560 H         1 ASP55       0.0313
    118 H42        10.5003    4.2200   -4.1056 H         1 ASP55       0.0287
    119 H43         9.2692    3.2152   -4.9430 H         1 ASP55       0.0287
    120 H44        11.4501    2.3572   -3.0009 H         1 ASP55       0.0524
    121 H45         9.7335    1.8349   -3.0865 H         1 ASP55       0.0524
    122 H46        12.4870    1.2718   -8.2516 H         1 ASP55       0.1883
    123 H47        14.7252   -0.2795   -7.2680 H         1 ASP55       0.0797
    124 H48        15.6563   -0.0540   -9.5423 H         1 ASP55       0.0277
    125 H49        14.3866    1.1530   -9.9394 H         1 ASP55       0.0277
    126 H50        13.9286   -0.5445   -9.5714 H         1 ASP55       0.0277
    127 H51        14.0351    3.0936   -7.4303 H         1 ASP55       0.1881
    128 H52        16.7913    3.9481   -7.7628 H         1 ASP55       0.0786
    129 H53        15.0503    5.3661   -8.6026 H         1 ASP55       0.0328
    130 H54        15.7867    6.2149   -7.2012 H         1 ASP55       0.0328
    131 H55        13.5480    4.5073   -6.3844 H         1 ASP55       0.0432
    132 H56        13.0567    5.7092   -7.6257 H         1 ASP55       0.0432
    133 H57        17.1337    4.0598   -3.2754 H         1 ASP55       0.0836
    134 H58        15.9673    2.5301   -1.5501 H         1 ASP55       0.0452
    135 H59        14.9994    1.9053   -2.9284 H         1 ASP55       0.0452
    136 H60        16.2163    5.3716   -1.9060 H         1 ASP55       0.0530
    137 H61        12.9055    2.8310   -3.0265 H         1 ASP55       0.0530
    138 H62        14.6575    7.3105   -1.6747 H         1 ASP55       0.0526
    139 H63        11.3680    4.7845   -2.9257 H         1 ASP55       0.0526
    140 H64        19.3174    2.1610   -2.0823 H         1 ASP55       0.2540
@<TRIPOS>BOND
     1    2    1 1  
     2    2    5 1  
     3    3    2 1  
     4    3    4 2  
     5    7    6 1  
     6    7   10 1  
     7    8    7 1  
     8    8    9 2  
     9   10   11 1  
    10   11   12 ar 
    11   11   13 ar 
    12   13   15 ar 
    13   15   16 ar 
    14   14   16 ar 
    15   12   14 ar 
    16    6    3 am 
    17   18   17 1  
    18   18   21 1  
    19   19   18 1  
    20   19   20 2  
    21   21   22 1  
    22   22   23 1  
    23   23   25 ar 
    24   23   24 ar 
    25   17    8 am 
    26   27   26 1  
    27   27   30 1  
    28   28   27 1  
    29   28   29 2  
    30   26   19 am 
    31   32   31 1  
    32   32   35 1  
    33   33   32 1  
    34   33   34 2  
    35   35   37 1  
    36   35   36 1  
    37   36   38 1  
    38   31   28 am 
    39   41   40 1  
    40   40   43 1  
    41   40   39 1  
    42   39   45 1  
    43   45   44 1  
    44   43   44 1  
    45   41   42 2  
    46   39   33 am 
    47   47   46 1  
    48   47   50 1  
    49   48   47 1  
    50   48   49 2  
    51   46   41 am 
    52   51   52 1  
    53   52   55 1  
    54   52   53 1  
    55   53   54 2  
    56   55   56 1  
    57   56   57 1  
    58   57   59 ar 
    59   57   58 ar 
    60   48   51 am 
    61   53   60 2  
    62   60   61 1  
    63   61   62 1  
    64   61   74 1  
    65   62   63 1  
    66   63   64 ar 
    67   63   65 ar 
    68   64   66 ar 
    69   65   67 ar 
    70   66   68 ar 
    71   67   68 ar 
    72   68   69 1  
    73   69   70 1  
    74   70   71 ar 
    75   70   72 ar 
    76   70   73 ar 
    77   74   75 2  
    78   74   76 1  
    79    1   77 1  
    80    1   78 1  
    81    1   79 1  
    82    2   80 1  
    83    5   81 1  
    84    5   82 1  
    85    5   83 1  
    86    6   84 1  
    87    7   85 1  
    88   10   86 1  
    89   10   87 1  
    90   12   88 1  
    91   13   89 1  
    92   14   90 1  
    93   15   91 1  
    94   16   92 1  
    95   17   93 1  
    96   18   94 1  
    97   21   95 1  
    98   21   96 1  
    99   22   97 1  
   100   22   98 1  
   101   26   99 1  
   102   27  100 1  
   103   30  101 1  
   104   30  102 1  
   105   30  103 1  
   106   31  104 1  
   107   32  105 1  
   108   35  106 1  
   109   36  107 1  
   110   36  108 1  
   111   37  109 1  
   112   37  110 1  
   113   37  111 1  
   114   38  112 1  
   115   38  113 1  
   116   38  114 1  
   117   40  115 1  
   118   43  116 1  
   119   43  117 1  
   120   44  118 1  
   121   44  119 1  
   122   45  120 1  
   123   45  121 1  
   124   46  122 1  
   125   47  123 1  
   126   50  124 1  
   127   50  125 1  
   128   50  126 1  
   129   51  127 1  
   130   52  128 1  
   131   55  129 1  
   132   55  130 1  
   133   56  131 1  
   134   56  132 1  
   135   61  133 1  
   136   62  134 1  
   137   62  135 1  
   138   64  136 1  
   139   65  137 1  
   140   66  138 1  
   141   67  139 1  
   142   76  140 1  
@<TRIPOS>SUBSTRUCTURE
     1 ASP55       1

