### 
### Created by X-TOOL on Fri Sep 26 17:34:44 2014
### 

@<TRIPOS>MOLECULE
3hik_ligand
   85    86     1     0     0
SMALL
GAST_HUCK


@<TRIPOS>ATOM
      1 C         -13.2100    7.2440   -4.4550 C.2       1 ACE         0.1776
      2 O         -13.5360    8.4060   -4.8380 O.2       1 ACE        -0.3970
      3 CH3       -12.6110    7.0330   -3.0930 C.3       1 ACE         0.0260
      4 N         -13.0530    6.2230   -5.3280 N.am      1 ACE        -0.2520
      5 CA        -13.0720    4.8280   -4.9470 C.3       1 ACE         0.1337
      6 C         -11.7430    4.4610   -4.3080 C.2       1 ACE         0.2041
      7 O         -10.7050    4.9060   -4.7870 O.2       1 ACE        -0.3944
      8 CB        -13.1790    4.1050   -6.3020 C.3       1 ACE        -0.0104
      9 CG        -13.8460    5.0630   -7.2210 C.3       1 ACE        -0.0281
     10 CD        -13.7620    6.4550   -6.6020 C.3       1 ACE         0.0369
     11 N         -11.7590    3.5780   -3.3010 N.am      1 ACE        -0.2637
     12 CA        -10.5570    3.1890   -2.5970 C.3       1 ACE         0.1312
     13 C          -9.8790    1.9000   -3.0730 C.2       1 ACE         0.2040
     14 O          -8.8280    1.5210   -2.5830 O.2       1 ACE        -0.3944
     15 CB        -10.8820    3.0730   -1.0940 C.3       1 ACE        -0.0101
     16 CG        -11.3190    4.4080   -0.4560 C.3       1 ACE        -0.0425
     17 CD1       -12.1570    4.1340    0.7940 C.3       1 ACE        -0.0625
     18 CD2       -10.1310    5.3040   -0.1460 C.3       1 ACE        -0.0625
     19 N         -10.4820    1.2450   -4.0600 N.am      1 ACE        -0.2625
     20 CA         -9.8670    0.1120   -4.6890 C.3       1 ACE         0.1369
     21 C         -10.5180   -0.0670   -6.0260 C.2       1 ACE         0.2054
     22 O         -11.5680    0.5060   -6.2680 O.2       1 ACE        -0.3942
     23 CB         -9.9280   -1.1870   -3.8250 C.3       1 ACE         0.0145
     24 CG        -11.3100   -1.6220   -3.4260 C.2       1 ACE        -0.0027
     25 ND1       -12.2460   -2.0610   -4.3370 N.2       1 ACE        -0.3252
     26 CD2       -11.8930   -1.7380   -2.2080 C.2       1 ACE         0.0291
     27 CE1       -13.3530   -2.4150   -3.7040 C.2       1 ACE         0.0907
     28 NE2       -13.1640   -2.2320   -2.4090 N.pl3     1 ACE        -0.2752
     29 N          -9.8590   -0.8480   -6.8790 N.am      1 ACE        -0.2615
     30 CA        -10.4210   -1.1900   -8.1880 C.3       1 ACE         0.1539
     31 C         -11.7150   -2.0380   -8.0720 C.2       1 ACE         0.2057
     32 O         -12.0790   -2.5180   -6.9800 O.2       1 ACE        -0.3943
     33 CB         -9.3450   -1.8560   -9.0240 C.3       1 ACE         0.0843
     34 OG         -8.9080   -3.0680   -8.4890 O.3       1 ACE        -0.3903
     35 N         -12.4130   -2.2310   -9.2040 N.am      1 ACE        -0.2666
     36 CA        -13.7020   -2.9650   -9.2220 C.3       1 ACE         0.1245
     37 CB        -14.1210   -3.0660  -10.6920 C.3       1 ACE         0.1208
     38 CG2       -15.5350   -3.6330  -10.8710 C.3       1 ACE        -0.0304
     39 OG1       -14.1280   -1.7300  -11.2100 O.3       1 ACE        -0.2691
     40 P         -13.0730   -1.2840  -12.3710 P.3       1 ACE         0.2013
     41 O1P       -13.3130   -2.3190  -13.4580 O.co2     1 ACE        -0.5537
     42 O2P       -11.7110   -1.2950  -11.7900 O.co2     1 ACE        -0.5537
     43 O3P       -13.6520    0.0580  -12.6330 O.co2     1 ACE        -0.5537
     44 C         -13.5840   -4.3270   -8.6100 C.2       1 ACE         0.0630
     45 O         -12.7030   -5.1040   -9.0010 O.co2     1 ACE        -0.5665
     46 OXT       -14.3420   -4.6590   -7.6550 O.co2     1 ACE        -0.5665
     47 H         -11.6855    7.6031   -3.0122 H         1 ACE         0.0467
     48 H         -13.3146    7.3703   -2.3318 H         1 ACE         0.0467
     49 H         -12.4000    5.9731   -2.9505 H         1 ACE         0.0467
     50 H         -13.8676    4.5815   -4.2439 H         1 ACE         0.0802
     51 H         -13.7477    3.1793   -6.2135 H         1 ACE         0.0313
     52 H         -12.1967    3.8159   -6.6756 H         1 ACE         0.0313
     53 H         -14.8885    4.7795   -7.3654 H         1 ACE         0.0287
     54 H         -13.3528    5.0549   -8.1930 H         1 ACE         0.0287
     55 H         -13.2447    7.1675   -7.2444 H         1 ACE         0.0524
     56 H         -14.7428    6.9082   -6.4579 H         1 ACE         0.0524
     57 H         -12.6491    3.1659   -3.0211 H         1 ACE         0.1883
     58 H          -9.8311    3.9732   -2.8116 H         1 ACE         0.0800
     59 H          -9.9741    2.7480   -0.5859 H         1 ACE         0.0315
     60 H         -11.7109    2.3728   -0.9905 H         1 ACE         0.0315
     61 H         -11.9326    4.9479   -1.1771 H         1 ACE         0.0298
     62 H         -13.0409    3.5588    0.5184 H         1 ACE         0.0232
     63 H         -11.5627    3.5681    1.5114 H         1 ACE         0.0232
     64 H         -12.4624    5.0806    1.2398 H         1 ACE         0.0232
     65 H          -9.4650    4.7942    0.5501 H         1 ACE         0.0232
     66 H          -9.5941    5.5255   -1.0684 H         1 ACE         0.0232
     67 H         -10.4850    6.2326    0.3018 H         1 ACE         0.0232
     68 H         -11.4009    1.5544   -4.3766 H         1 ACE         0.1885
     69 H          -8.8003    0.3031   -4.8063 H         1 ACE         0.0817
     70 H          -9.3865   -0.9765   -2.9028 H         1 ACE         0.0420
     71 H          -9.5097   -1.9888   -4.4334 H         1 ACE         0.0420
     72 H         -11.4410   -1.4874   -1.2483 H         1 ACE         0.0729
     73 H         -14.2632   -2.7923   -4.1702 H         1 ACE         0.1199
     74 H         -13.8476   -2.4250   -1.6770 H         1 ACE         0.2361
     75 H          -8.9446   -1.2156   -6.6161 H         1 ACE         0.1884
     76 H         -10.7353   -0.2772   -8.6941 H         1 ACE         0.0823
     77 H          -8.4891   -1.1821   -9.0600 H         1 ACE         0.0606
     78 H          -9.7691   -2.0616  -10.0068 H         1 ACE         0.0606
     79 H          -8.2307   -3.4418   -9.0575 H         1 ACE         0.2097
     80 H         -12.0443   -1.8605  -10.0799 H         1 ACE         0.1876
     81 H         -14.4459   -2.4348   -8.6274 H         1 ACE         0.0756
     82 H         -13.4274   -3.7336  -11.2032 H         1 ACE         0.0688
     83 H         -15.5806   -4.6341  -10.4422 H         1 ACE         0.0260
     84 H         -16.2513   -2.9863  -10.3642 H         1 ACE         0.0260
     85 H         -15.7744   -3.6802  -11.9333 H         1 ACE         0.0260
@<TRIPOS>BOND
     1    1    2 2  
     2    1    3 1  
     3    1    4 am 
     4    4    5 1  
     5    4   10 1  
     6    5    6 1  
     7    5    8 1  
     8    6    7 2  
     9    6   11 am 
    10    8    9 1  
    11    9   10 1  
    12   11   12 1  
    13   12   13 1  
    14   12   15 1  
    15   13   14 2  
    16   13   19 am 
    17   15   16 1  
    18   16   17 1  
    19   16   18 1  
    20   19   20 1  
    21   20   21 1  
    22   20   23 1  
    23   21   22 2  
    24   21   29 am 
    25   23   24 1  
    26   24   25 1  
    27   24   26 2  
    28   25   27 2  
    29   26   28 1  
    30   27   28 1  
    31   29   30 1  
    32   30   31 1  
    33   30   33 1  
    34   31   32 2  
    35   31   35 am 
    36   33   34 1  
    37   35   36 1  
    38   36   37 1  
    39   36   44 1  
    40   37   38 1  
    41   37   39 1  
    42   39   40 1  
    43   40   41 ar 
    44   40   42 ar 
    45   40   43 ar 
    46   44   45 ar 
    47   44   46 ar 
    48    3   47 1  
    49    3   48 1  
    50    3   49 1  
    51    5   50 1  
    52    8   51 1  
    53    8   52 1  
    54    9   53 1  
    55    9   54 1  
    56   10   55 1  
    57   10   56 1  
    58   11   57 1  
    59   12   58 1  
    60   15   59 1  
    61   15   60 1  
    62   16   61 1  
    63   17   62 1  
    64   17   63 1  
    65   17   64 1  
    66   18   65 1  
    67   18   66 1  
    68   18   67 1  
    69   19   68 1  
    70   20   69 1  
    71   23   70 1  
    72   23   71 1  
    73   26   72 1  
    74   27   73 1  
    75   28   74 1  
    76   29   75 1  
    77   30   76 1  
    78   33   77 1  
    79   33   78 1  
    80   34   79 1  
    81   35   80 1  
    82   36   81 1  
    83   37   82 1  
    84   38   83 1  
    85   38   84 1  
    86   38   85 1  
@<TRIPOS>SUBSTRUCTURE
     1 ACE         1

