### 
### Created by X-TOOL on Fri Sep 26 17:34:45 2014
### 

@<TRIPOS>MOLECULE
3hio_ligand
  177   189     1     0     0
SMALL
GAST_HUCK


@<TRIPOS>ATOM
      1 O6G       -30.9430    2.5110    6.4610 O.2       1 C2X        -0.3594
      2 C6G       -30.4120    3.0700    7.4340 C.2       1 C2X         0.2628
      3 C5G       -28.9560    3.0680    7.6150 C.2       1 C2X         0.2558
      4 N7G       -27.9160    2.5820    6.9330 N.2       1 C2X        -0.1929
      5 C8G       -26.8010    2.9090    7.6110 C.2       1 C2X         0.1855
      6 N1G       -31.1470    3.6810    8.3410 N.am      1 C2X        -0.2478
      7 C2G       -30.6280    4.2920    9.4100 C.cat     1 C2X         0.2041
      8 N2G       -31.5120    4.8680   10.2560 N.pl3     1 C2X        -0.3327
      9 N3G       -29.2950    4.3400    9.6630 N.pl3     1 C2X        -0.1901
     10 C4G       -28.4270    3.7460    8.8060 C.2       1 C2X         0.3268
     11 N9G       -27.1050    3.5960    8.7290 N.pl3     1 C2X        -0.0954
     12 C1E       -26.1150    4.1080    9.7000 C.3       1 C2X         0.2225
     13 C2E       -25.8780    3.1450   10.8480 C.3       1 C2X         0.1491
     14 O2E       -26.8500    3.3200   11.8700 O.3       1 C2X        -0.3711
     15 C6E       -27.9000    2.3590   11.7680 C.3       1 C2X         0.0372
     16 C3E       -24.5410    3.6480   11.3270 C.3       1 C2X         0.1543
     17 O3E       -24.8260    4.9280   11.8480 O.3       1 C2X        -0.2453
     18 PV        -24.7650    5.3770   13.3770 P.3       1 C2X         0.2556
     19 O2V       -23.6130    4.6820   14.0710 O.co2     1 C2X        -0.6177
     20 O1V       -26.1640    5.2570   13.9460 O.co2     1 C2X        -0.6177
     21 O5C       -24.4970    6.9560   13.2020 O.3       1 C2X        -0.2535
     22 C5C       -23.2750    7.5820   12.8330 C.3       1 C2X         0.0943
     23 C4C       -23.0470    7.7680   11.3270 C.3       1 C2X         0.0638
     24 C7C       -23.6340    8.9960   10.6300 C.3       1 C2X        -0.0226
     25 N1C       -22.5060    9.4430    9.7850 N.4       1 C2X         0.2445
     26 C6C       -22.4530   10.6020    8.8860 C.3       1 C2X        -0.0117
     27 C9I       -23.3040   10.2240    7.7060 C.2       1 C2X         0.0166
     28 C8I       -22.9520    9.5090    6.5620 C.2       1 C2X         0.0326
     29 N7I       -24.0750    9.3550    5.7880 N.pl3     1 C2X        -0.2768
     30 C5I       -25.1540    9.9130    6.3720 C.ar      1 C2X         0.1304
     31 C6I       -26.4940   10.0670    6.0380 C.ar      1 C2X         0.1459
     32 N6I       -26.9860    9.5610    4.8840 N.pl3     1 C2X        -0.3157
     33 N1I       -27.3240   10.7140    6.8860 N.ar      1 C2X        -0.2741
     34 C2I       -26.8720   11.2250    8.0310 C.ar      1 C2X         0.0439
     35 N3I       -25.5880   11.1020    8.3920 N.ar      1 C2X        -0.3132
     36 C4I       -24.7430   10.4800    7.5440 C.ar      1 C2X         0.0483
     37 C2C       -21.3160    8.6180    9.8670 C.3       1 C2X         0.0016
     38 C3C       -21.5770    8.0590   11.2480 C.3       1 C2X         0.1439
     39 O3C       -20.9650    6.8220   11.4790 O.3       1 C2X        -0.2449
     40 PY        -19.8070    6.7310   12.5790 P.3       1 C2X         0.2557
     41 O1Y       -18.5300    6.6590   11.7710 O.co2     1 C2X        -0.6177
     42 O2Y       -19.9910    7.7660   13.6490 O.co2     1 C2X        -0.6177
     43 O5D       -20.1340    5.3130   13.2090 O.3       1 C2X        -0.2514
     44 C5D       -21.2820    4.6050   12.7970 C.3       1 C2X         0.1128
     45 C4D       -20.8540    3.1610   12.9150 C.3       1 C2X         0.1243
     46 O4D       -20.5630    2.6470   11.6170 O.3       1 C2X        -0.3343
     47 C1D       -19.4410    1.7580   11.6740 C.3       1 C2X         0.2225
     48 N9N       -18.3770    2.2840   10.7760 N.pl3     1 C2X        -0.0954
     49 C4N       -18.4650    2.4250    9.4470 C.2       1 C2X         0.3268
     50 N3N       -19.4120    2.1750    8.5010 N.pl3     1 C2X        -0.1901
     51 C2N       -19.1750    2.4350    7.1850 C.cat     1 C2X         0.2041
     52 N2N       -20.1380    2.1730    6.2700 N.pl3     1 C2X        -0.3327
     53 N1N       -18.0180    2.9450    6.7340 N.am      1 C2X        -0.2478
     54 C6N       -17.0010    3.2360    7.5510 C.2       1 C2X         0.2628
     55 O6N       -15.9370    3.7090    7.0920 O.2       1 C2X        -0.3594
     56 C5N       -17.1760    2.9830    9.0050 C.2       1 C2X         0.2558
     57 N7N       -16.4240    3.1310   10.1120 N.2       1 C2X        -0.1929
     58 C8N       -17.1640    2.7100   11.1700 C.2       1 C2X         0.1855
     59 C2D       -18.9870    1.7350   13.1280 C.3       1 C2X         0.1491
     60 O2D       -19.6240    0.6330   13.7820 O.3       1 C2X        -0.3711
     61 C6D       -18.8970   -0.5930   13.6700 C.3       1 C2X         0.0372
     62 C3D       -19.5450    3.0350   13.6840 C.3       1 C2X         0.1543
     63 O3D       -19.7640    3.0250   15.0970 O.3       1 C2X        -0.2453
     64 O4E       -24.8380    4.2350    9.0810 O.3       1 C2X        -0.3343
     65 C4E       -23.8070    3.9590   10.0360 C.3       1 C2X         0.1243
     66 C5E       -23.0300    2.7440    9.5810 C.3       1 C2X         0.1128
     67 O5E       -23.9820    1.6870    9.5710 O.3       1 C2X        -0.2514
     68 PU        -23.5030    0.1620    9.7270 P.3       1 C2X         0.2552
     69 O1U       -24.7410   -0.7020    9.8110 O.co2     1 C2X        -0.6177
     70 O2U       -22.4700   -0.0830    8.6510 O.co2     1 C2X        -0.6177
     71 O3U       -22.7880    0.1430   11.1770 O.3       1 C2X        -0.2541
     72 C1L       -23.4820   -0.2790   12.3570 C.3       1 C2X         0.0837
     73 C2L       -22.7530    0.2320   13.6050 C.3       1 C2X        -0.0243
     74 C3L       -21.7640   -0.7900   14.1800 C.3       1 C2X        -0.0506
     75 C4L       -21.3190   -0.4010   15.5940 C.3       1 C2X        -0.0507
     76 C5L       -19.9270   -0.9380   15.9330 C.3       1 C2X        -0.0242
     77 C6L       -19.8090   -1.3270   17.4100 C.3       1 C2X         0.0953
     78 O6L       -18.5470   -0.9220   17.9660 O.3       1 C2X        -0.2811
     79 N6L       -18.1200   -1.4380   19.2520 N.4       1 C2X         0.5234
     80 O3X       -17.8190   -0.6070   20.3970 O.3       1 C2X        -0.1544
     81 PX        -16.3790    0.1040   20.5670 P.3       1 C2X         0.3133
     82 O2X       -16.5760    1.5580   20.9280 O.co2     1 C2X        -0.6140
     83 O1X       -15.5030   -0.7610   21.4410 O.co2     1 C2X        -0.6140
     84 O3B       -15.7760    0.0330   19.0720 O.3       1 C2X        -0.2414
     85 C3B       -16.1110    0.9680   18.0490 C.3       1 C2X         0.1544
     86 C4B       -16.3480    0.1880   16.7620 C.3       1 C2X         0.1242
     87 C5B       -17.2210    1.0050   15.8120 C.3       1 C2X         0.1128
     88 O5B       -18.0920    1.8200   16.5960 O.3       1 C2X        -0.2514
     89 PZ        -18.5850    3.3120   16.1770 P.3       1 C2X         0.2557
     90 O2Z       -17.4490    4.0480   15.5200 O.co2     1 C2X        -0.6177
     91 O1Z       -19.2550    3.8710   17.4090 O.co2     1 C2X        -0.6177
     92 C2B       -14.8360    1.6940   17.7350 C.3       1 C2X         0.1469
     93 O2B       -14.1670    2.2090   18.8810 O.3       1 C2X        -0.3712
     94 C6B       -13.8010    3.5770   18.6990 C.3       1 C2X         0.0372
     95 C1B       -14.1200    0.4810   17.2060 C.3       1 C2X         0.2016
     96 O4B       -15.0340   -0.0010   16.2120 O.3       1 C2X        -0.3360
     97 N9A       -12.7480    0.8230   16.7680 N.pl3     1 C2X        -0.1919
     98 C4A       -12.2130    2.0500   16.7800 C.ar      1 C2X         0.1613
     99 C5A       -10.9120    1.9340   16.3210 C.ar      1 C2X         0.1045
    100 N7A       -10.6870    0.6280   16.0560 N.2       1 C2X        -0.2958
    101 C8A       -11.8230   -0.0490   16.3400 C.2       1 C2X         0.1123
    102 N3A       -12.6930    3.2740   17.1240 N.ar      1 C2X        -0.2714
    103 C2A       -11.9070    4.3600   17.0160 C.ar      1 C2X         0.0533
    104 N1A       -10.6440    4.2710   16.5710 N.ar      1 C2X        -0.2698
    105 C6A       -10.1260    3.0730   16.2190 C.ar      1 C2X         0.1298
    106 N6A        -8.8530    2.9730   15.7720 N.pl3     1 C2X        -0.3152
    107 H1        -25.7898    2.6530    7.2983 H         1 C2X         0.1823
    108 H2        -32.1401    3.6878    8.2238 H         1 C2X         0.1819
    109 H3        -31.1758    5.3550   11.0990 H         1 C2X         0.1774
    110 H4        -32.5215    4.8197   10.0573 H         1 C2X         0.1774
    111 H5        -28.9444    4.8249   10.5014 H         1 C2X         0.2519
    112 H6        -26.4587    5.0798   10.0840 H         1 C2X         0.1022
    113 H7        -25.8470    2.0957   10.5193 H         1 C2X         0.0684
    114 H8        -28.6300    2.5267   12.5736 H         1 C2X         0.0524
    115 H9        -27.4803    1.3463   11.8585 H         1 C2X         0.0524
    116 H10       -28.3992    2.4633   10.7933 H         1 C2X         0.0524
    117 H11       -24.0107    2.9737   12.0155 H         1 C2X         0.0712
    118 H12       -22.4501    6.9695   13.2259 H         1 C2X         0.0626
    119 H13       -23.2498    8.5761   13.3032 H         1 C2X         0.0626
    120 H14       -23.3426    6.8541   10.7910 H         1 C2X         0.0410
    121 H15       -23.9185    9.7701   11.3579 H         1 C2X         0.0819
    122 H16       -24.5086    8.7281   10.0190 H         1 C2X         0.0819
    123 H17       -22.1875   10.0328   10.5378 H         1 C2X         0.2042
    124 H18       -21.4180   10.7971    8.5685 H         1 C2X         0.0901
    125 H19       -22.8585   11.4952    9.3837 H         1 C2X         0.0901
    126 H20       -21.9568    9.1366    6.3235 H         1 C2X         0.0886
    127 H21       -24.0911    8.8744    4.8772 H         1 C2X         0.2266
    128 H22       -27.9818    9.6838    4.6510 H         1 C2X         0.1805
    129 H23       -26.3649    9.0530    4.2383 H         1 C2X         0.1805
    130 H24       -27.5584   11.7515    8.6842 H         1 C2X         0.0956
    131 H25       -20.3896    9.2092    9.8201 H         1 C2X         0.0844
    132 H26       -21.2915    7.8360    9.0938 H         1 C2X         0.0844
    133 H27       -21.2645    8.7875   12.0106 H         1 C2X         0.0716
    134 H28       -21.5486    4.8543   11.7594 H         1 C2X         0.0647
    135 H29       -22.1359    4.8190   13.4566 H         1 C2X         0.0647
    136 H30       -21.6482    2.5765   13.4024 H         1 C2X         0.0655
    137 H31       -19.7294    0.7463   11.3526 H         1 C2X         0.1022
    138 H32       -20.3214    1.7833    8.7848 H         1 C2X         0.2519
    139 H33       -19.9673    2.3665    5.2729 H         1 C2X         0.1774
    140 H34       -21.0413    1.7802    6.5711 H         1 C2X         0.1774
    141 H35       -17.9135    3.1128    5.7537 H         1 C2X         0.1819
    142 H36       -16.8198    2.7166   12.2032 H         1 C2X         0.1823
    143 H37       -17.8928    1.6764   13.2248 H         1 C2X         0.0684
    144 H38       -19.4428   -1.3920   14.1932 H         1 C2X         0.0524
    145 H39       -17.9017   -0.4718   14.1224 H         1 C2X         0.0524
    146 H40       -18.7873   -0.8586   12.6082 H         1 C2X         0.0524
    147 H41       -18.8704    3.8705   13.4455 H         1 C2X         0.0712
    148 H42       -23.1339    4.8202   10.1593 H         1 C2X         0.0655
    149 H43       -22.2120    2.5221   10.2822 H         1 C2X         0.0647
    150 H44       -22.6168    2.9029    8.5740 H         1 C2X         0.0647
    151 H45       -23.5218   -1.3780   12.3828 H         1 C2X         0.0620
    152 H46       -24.5051    0.1247   12.3419 H         1 C2X         0.0620
    153 H47       -23.5010    0.4685   14.3761 H         1 C2X         0.0291
    154 H48       -22.1994    1.1446   13.3390 H         1 C2X         0.0291
    155 H49       -20.8800   -0.8394   13.5273 H         1 C2X         0.0266
    156 H50       -22.2489   -1.7767   14.2159 H         1 C2X         0.0266
    157 H51       -22.0410   -0.8086   16.3168 H         1 C2X         0.0266
    158 H52       -21.3031    0.6962   15.6706 H         1 C2X         0.0266
    159 H53       -19.1817   -0.1605   15.7094 H         1 C2X         0.0289
    160 H54       -19.7279   -1.8256   15.3145 H         1 C2X         0.0289
    161 H55       -19.9043   -2.4191   17.5000 H         1 C2X         0.0616
    162 H56       -20.6193   -0.8406   17.9728 H         1 C2X         0.0616
    163 H57       -17.2811   -1.9663   19.0697 H         1 C2X         0.2891
    164 H58       -18.8518   -2.0626   19.5525 H         1 C2X         0.2891
    165 H59       -16.9474    1.6260   18.3273 H         1 C2X         0.0712
    166 H60       -16.8285   -0.7795   16.9694 H         1 C2X         0.0655
    167 H61       -17.8138    0.3297   15.1775 H         1 C2X         0.0647
    168 H62       -16.5865    1.6413   15.1776 H         1 C2X         0.0647
    169 H63       -14.9686    2.4903   16.9878 H         1 C2X         0.0683
    170 H64       -13.2876    3.9423   19.6007 H         1 C2X         0.0524
    171 H65       -14.7052    4.1782   18.5230 H         1 C2X         0.0524
    172 H66       -13.1282    3.6645   17.8332 H         1 C2X         0.0524
    173 H67       -14.0264   -0.2777   17.9970 H         1 C2X         0.0996
    174 H68       -11.9634   -1.1241   16.2380 H         1 C2X         0.1349
    175 H69       -12.3029    5.3298   17.2949 H         1 C2X         0.0996
    176 H70        -8.2665    3.8162   15.6949 H         1 C2X         0.1820
    177 H71        -8.4703    2.0537   15.5088 H         1 C2X         0.1820
@<TRIPOS>BOND
     1    1    2 2  
     2    2    3 1  
     3    2    6 am 
     4    3    4 1  
     5    3   10 2  
     6    4    5 2  
     7    5   11 1  
     8    6    7 ar 
     9    7    8 ar 
    10    7    9 ar 
    11    9   10 1  
    12   10   11 1  
    13   11   12 1  
    14   12   13 1  
    15   12   64 1  
    16   13   14 1  
    17   13   16 1  
    18   14   15 1  
    19   16   17 1  
    20   16   65 1  
    21   17   18 1  
    22   18   19 ar 
    23   18   20 ar 
    24   18   21 1  
    25   21   22 1  
    26   22   23 1  
    27   23   24 1  
    28   23   38 1  
    29   24   25 1  
    30   25   26 1  
    31   25   37 1  
    32   26   27 1  
    33   27   28 2  
    34   27   36 1  
    35   28   29 1  
    36   29   30 1  
    37   30   31 ar 
    38   30   36 ar 
    39   31   32 1  
    40   31   33 ar 
    41   33   34 ar 
    42   34   35 ar 
    43   35   36 ar 
    44   37   38 1  
    45   38   39 1  
    46   39   40 1  
    47   40   41 ar 
    48   40   42 ar 
    49   40   43 1  
    50   43   44 1  
    51   44   45 1  
    52   45   46 1  
    53   45   62 1  
    54   46   47 1  
    55   47   48 1  
    56   47   59 1  
    57   48   49 1  
    58   48   58 1  
    59   49   50 1  
    60   49   56 2  
    61   50   51 ar 
    62   51   52 ar 
    63   51   53 ar 
    64   53   54 am 
    65   54   55 2  
    66   54   56 1  
    67   56   57 1  
    68   57   58 2  
    69   59   60 1  
    70   59   62 1  
    71   60   61 1  
    72   62   63 1  
    73   63   89 1  
    74   64   65 1  
    75   65   66 1  
    76   66   67 1  
    77   67   68 1  
    78   68   69 ar 
    79   68   70 ar 
    80   68   71 1  
    81   71   72 1  
    82   72   73 1  
    83   73   74 1  
    84   74   75 1  
    85   75   76 1  
    86   76   77 1  
    87   77   78 1  
    88   78   79 1  
    89   79   80 1  
    90   80   81 1  
    91   81   82 ar 
    92   81   83 ar 
    93   81   84 1  
    94   84   85 1  
    95   85   86 1  
    96   85   92 1  
    97   86   87 1  
    98   86   96 1  
    99   87   88 1  
   100   88   89 1  
   101   89   90 ar 
   102   89   91 ar 
   103   92   93 1  
   104   92   95 1  
   105   93   94 1  
   106   95   96 1  
   107   95   97 1  
   108   97   98 1  
   109   97  101 1  
   110   98   99 ar 
   111   98  102 ar 
   112   99  100 1  
   113   99  105 ar 
   114  100  101 2  
   115  102  103 ar 
   116  103  104 ar 
   117  104  105 ar 
   118  105  106 1  
   119    5  107 1  
   120    6  108 1  
   121    8  109 1  
   122    8  110 1  
   123    9  111 1  
   124   12  112 1  
   125   13  113 1  
   126   15  114 1  
   127   15  115 1  
   128   15  116 1  
   129   16  117 1  
   130   22  118 1  
   131   22  119 1  
   132   23  120 1  
   133   24  121 1  
   134   24  122 1  
   135   25  123 1  
   136   26  124 1  
   137   26  125 1  
   138   28  126 1  
   139   29  127 1  
   140   32  128 1  
   141   32  129 1  
   142   34  130 1  
   143   37  131 1  
   144   37  132 1  
   145   38  133 1  
   146   44  134 1  
   147   44  135 1  
   148   45  136 1  
   149   47  137 1  
   150   50  138 1  
   151   52  139 1  
   152   52  140 1  
   153   53  141 1  
   154   58  142 1  
   155   59  143 1  
   156   61  144 1  
   157   61  145 1  
   158   61  146 1  
   159   62  147 1  
   160   65  148 1  
   161   66  149 1  
   162   66  150 1  
   163   72  151 1  
   164   72  152 1  
   165   73  153 1  
   166   73  154 1  
   167   74  155 1  
   168   74  156 1  
   169   75  157 1  
   170   75  158 1  
   171   76  159 1  
   172   76  160 1  
   173   77  161 1  
   174   77  162 1  
   175   79  163 1  
   176   79  164 1  
   177   85  165 1  
   178   86  166 1  
   179   87  167 1  
   180   87  168 1  
   181   92  169 1  
   182   94  170 1  
   183   94  171 1  
   184   94  172 1  
   185   95  173 1  
   186  101  174 1  
   187  103  175 1  
   188  106  176 1  
   189  106  177 1  
@<TRIPOS>SUBSTRUCTURE
     1 C2X         1

