### 
### Created by X-TOOL on Fri Sep 26 17:34:49 2014
### 

@<TRIPOS>MOLECULE
3ml4_ligand
  156   159     1     0     0
SMALL
GAST_HUCK


@<TRIPOS>ATOM
      1 N         -87.8420  -23.5100  -22.9630 N.4       1 LEU         0.2379
      2 CA        -86.7750  -22.6340  -23.5310 C.3       1 LEU         0.0652
      3 C         -87.1150  -21.1490  -23.3970 C.2       1 LEU         0.2268
      4 O         -88.2870  -20.7660  -23.3340 O.2       1 LEU        -0.3907
      5 CB        -86.5080  -22.9780  -24.9990 C.3       1 LEU         0.0102
      6 CG        -85.8000  -24.2840  -25.3760 C.3       1 LEU        -0.0394
      7 CD1       -85.6520  -24.3720  -26.8920 C.3       1 LEU        -0.0623
      8 CD2       -84.4400  -24.4090  -24.7050 C.3       1 LEU        -0.0623
      9 N         -86.0740  -20.3220  -23.3640 N.am      1 LEU        -0.2598
     10 CA        -86.2180  -18.8910  -23.1080 C.3       1 LEU         0.1372
     11 C         -86.0800  -18.0920  -24.4060 C.2       1 LEU         0.2079
     12 O         -85.0270  -18.1360  -25.0500 O.2       1 LEU        -0.3940
     13 CB        -85.1730  -18.4280  -22.0780 C.3       1 LEU         0.0145
     14 CG        -85.3740  -18.9880  -20.6990 C.2       1 LEU        -0.0027
     15 ND1       -84.7840  -18.4510  -19.5740 N.2       1 LEU        -0.3252
     16 CD2       -86.1290  -20.0250  -20.2640 C.2       1 LEU         0.0291
     17 CE1       -85.1520  -19.1410  -18.5100 C.2       1 LEU         0.0907
     18 NE2       -85.9700  -20.1000  -18.9010 N.pl3     1 LEU        -0.2752
     19 N         -87.1520  -17.3850  -24.8150 N.am      1 LEU        -0.2497
     20 CA        -87.0480  -16.4690  -25.9580 C.3       1 LEU         0.1338
     21 C         -86.1400  -15.2770  -25.6480 C.2       1 LEU         0.2042
     22 O         -85.9480  -14.9350  -24.4810 O.2       1 LEU        -0.3944
     23 CB        -88.4940  -16.0100  -26.1860 C.3       1 LEU        -0.0104
     24 CG        -89.2090  -16.2820  -24.9040 C.3       1 LEU        -0.0281
     25 CD        -88.5170  -17.4310  -24.2530 C.3       1 LEU         0.0369
     26 N         -85.5800  -14.6640  -26.6880 N.am      1 LEU        -0.2616
     27 CA        -84.6370  -13.5590  -26.5220 C.3       1 LEU         0.1478
     28 C         -85.2810  -12.2150  -26.8460 C.2       1 LEU         0.2088
     29 O         -85.7000  -11.9900  -27.9820 O.2       1 LEU        -0.3940
     30 CB        -83.3770  -13.7870  -27.3780 C.3       1 LEU         0.0773
     31 CG        -82.3190  -12.6910  -27.2010 C.2       1 LEU         0.1780
     32 OD1       -82.3460  -11.9260  -26.2400 O.2       1 LEU        -0.3970
     33 ND2       -81.3760  -12.6250  -28.1360 N.am      1 LEU        -0.3007
     34 N         -85.3780  -11.3240  -25.8420 N.am      1 LEU        -0.2497
     35 CA        -85.8960   -9.9640  -26.0480 C.3       1 LEU         0.1338
     36 C         -85.0330   -9.1140  -26.9880 C.2       1 LEU         0.2041
     37 O         -85.5580   -8.2200  -27.6570 O.2       1 LEU        -0.3944
     38 CB        -85.9000   -9.3680  -24.6350 C.3       1 LEU        -0.0104
     39 CG        -85.8730  -10.5560  -23.7150 C.3       1 LEU        -0.0281
     40 CD        -85.0370  -11.5650  -24.4290 C.3       1 LEU         0.0369
     41 N         -83.7290   -9.3960  -27.0370 N.am      1 LEU        -0.2637
     42 CA        -82.8100   -8.6820  -27.9300 C.3       1 LEU         0.1317
     43 C         -83.0090   -9.0140  -29.4110 C.2       1 LEU         0.2041
     44 O         -82.6170   -8.2290  -30.2810 O.2       1 LEU        -0.3944
     45 CB        -81.3500   -8.9390  -27.5410 C.3       1 LEU        -0.0034
     46 CG        -80.8020   -8.0390  -26.4300 C.3       1 LEU        -0.0024
     47 SD        -81.1520   -6.2660  -26.6400 S.3       1 LEU        -0.1639
     48 CE        -79.5160   -5.5880  -26.3760 C.3       1 LEU        -0.0181
     49 N         -83.6250  -10.1670  -29.6860 N.am      1 LEU        -0.2607
     50 CA        -83.7100  -10.7130  -31.0450 C.3       1 LEU         0.1468
     51 C         -84.4110   -9.8070  -32.0600 C.2       1 LEU         0.2074
     52 O         -83.8130   -9.4330  -33.0670 O.2       1 LEU        -0.3941
     53 CB        -84.3310  -12.1130  -31.0600 C.3       1 LEU         0.0400
     54 CG        -84.2020  -12.8260  -32.3880 C.ar      1 LEU        -0.0004
     55 CD1       -82.9510  -13.1980  -32.8900 C.ar      1 LEU        -0.0239
     56 CD2       -85.3290  -13.1110  -33.1550 C.ar      1 LEU        -0.0239
     57 CE1       -82.8310  -13.8470  -34.1110 C.ar      1 LEU         0.0115
     58 CE2       -85.2220  -13.7600  -34.3790 C.ar      1 LEU         0.0115
     59 CZ        -83.9680  -14.1140  -34.8620 C.ar      1 LEU         0.1728
     60 OH        -83.8470  -14.7190  -35.9370 O.3       1 LEU        -0.2040
     61 P         -84.2970  -14.1930  -37.3950 P.3       1 LEU         0.1348
     62 O1P       -83.4240  -13.0600  -37.7780 O.co2     1 LEU        -0.6653
     63 O2P       -85.7710  -13.7580  -37.4040 O.co2     1 LEU        -0.6653
     64 O3P       -84.1300  -15.3610  -38.3820 O.co2     1 LEU        -0.6653
     65 N         -85.6670   -9.4560  -31.7920 N.am      1 LEU        -0.2638
     66 CA        -86.4580   -8.6320  -32.7220 C.3       1 LEU         0.1282
     67 C         -85.9920   -7.1660  -32.8380 C.2       1 LEU         0.2031
     68 O         -86.6440   -6.3550  -33.4930 O.2       1 LEU        -0.3944
     69 CB        -87.9480   -8.7010  -32.3710 C.3       1 LEU        -0.0244
     70 N         -84.8630   -6.8390  -32.2150 N.am      1 LEU        -0.2695
     71 CA        -84.2800   -5.5000  -32.3190 C.3       1 LEU         0.0945
     72 C         -83.0720   -5.4930  -33.2590 C.2       1 LEU         0.0601
     73 O         -82.9956   -6.3020  -34.2219 O.co2     1 LEU        -0.5666
     74 CB        -83.8860   -4.9700  -30.9360 C.3       1 LEU        -0.0148
     75 CG        -85.0690   -4.6670  -30.0270 C.3       1 LEU        -0.0162
     76 CD        -84.6490   -4.6120  -28.5650 C.3       1 LEU         0.0627
     77 NE        -85.7890   -4.7730  -27.6620 N.pl3     1 LEU        -0.2723
     78 CZ        -85.6930   -5.0670  -26.3670 C.cat     1 LEU         0.2882
     79 NH1       -84.5040   -5.2430  -25.8000 N.pl3     1 LEU        -0.2849
     80 NH2       -86.7910   -5.1910  -25.6310 N.pl3     1 LEU        -0.2849
     81 H         -88.0005  -23.2612  -21.9866 H         1 LEU         0.2015
     82 H         -88.7042  -23.3804  -23.4924 H         1 LEU         0.2015
     83 H         -87.5478  -24.4848  -23.0233 H         1 LEU         0.2015
     84 H         -85.8721  -22.8229  -22.9503 H         1 LEU         0.1098
     85 H         -85.8279  -22.1966  -25.3382 H         1 LEU         0.0348
     86 H         -87.5015  -23.0755  -25.4367 H         1 LEU         0.0348
     87 H         -86.4141  -25.1111  -25.0199 H         1 LEU         0.0299
     88 H         -85.0070  -23.5653  -27.2402 H         1 LEU         0.0232
     89 H         -85.2102  -25.3324  -27.1575 H         1 LEU         0.0232
     90 H         -86.6334  -24.2809  -27.3575 H         1 LEU         0.0232
     91 H         -83.9950  -25.3695  -24.9647 H         1 LEU         0.0232
     92 H         -83.7918  -23.6024  -25.0475 H         1 LEU         0.0232
     93 H         -84.5624  -24.3443  -23.6238 H         1 LEU         0.0232
     94 H         -85.1405  -20.7009  -23.5233 H         1 LEU         0.1886
     95 H         -87.2135  -18.7114  -22.7020 H         1 LEU         0.0817
     96 H         -85.2583  -17.3442  -21.9996 H         1 LEU         0.0420
     97 H         -84.2015  -18.7774  -22.4276 H         1 LEU         0.0420
     98 H         -86.7472  -20.6781  -20.8800 H         1 LEU         0.0729
     99 H         -84.8346  -18.9511  -17.4847 H         1 LEU         0.1199
    100 H         -86.4129  -20.7863  -18.2900 H         1 LEU         0.2361
    101 H         -86.6066  -16.9466  -26.8328 H         1 LEU         0.0802
    102 H         -88.9539  -16.5416  -27.0190 H         1 LEU         0.0313
    103 H         -88.5394  -14.9537  -26.4510 H         1 LEU         0.0313
    104 H         -90.2567  -16.5184  -25.0898 H         1 LEU         0.0287
    105 H         -89.1892  -15.4042  -24.2581 H         1 LEU         0.0287
    106 H         -88.5207  -17.3554  -23.1656 H         1 LEU         0.0524
    107 H         -89.0148  -18.3805  -24.4497 H         1 LEU         0.0524
    108 H         -85.8160  -14.9747  -27.6304 H         1 LEU         0.1885
    109 H         -84.3407  -13.5322  -25.4734 H         1 LEU         0.0826
    110 H         -83.6836  -13.7839  -28.4240 H         1 LEU         0.0551
    111 H         -82.9307  -14.7304  -27.0636 H         1 LEU         0.0551
    112 H         -80.6408  -11.9210  -28.0701 H         1 LEU         0.1814
    113 H         -81.3878  -13.2783  -28.9192 H         1 LEU         0.1814
    114 H         -86.8741   -9.9830  -26.5286 H         1 LEU         0.0802
    115 H         -86.7751   -8.7416  -24.4621 H         1 LEU         0.0313
    116 H         -85.0473   -8.7091  -24.4709 H         1 LEU         0.0313
    117 H         -86.8743  -10.9316  -23.5044 H         1 LEU         0.0287
    118 H         -85.4627  -10.3051  -22.7368 H         1 LEU         0.0287
    119 H         -83.9719  -11.4577  -24.2237 H         1 LEU         0.0524
    120 H         -85.2392  -12.5877  -24.1106 H         1 LEU         0.0524
    121 H         -83.3599  -10.1314  -26.4342 H         1 LEU         0.1883
    122 H         -83.0477   -7.6259  -27.8028 H         1 LEU         0.0800
    123 H         -80.7502   -8.7397  -28.4291 H         1 LEU         0.0320
    124 H         -81.3015   -9.9617  -27.1672 H         1 LEU         0.0320
    125 H         -79.7177   -8.1503  -26.4391 H         1 LEU         0.0378
    126 H         -81.2865   -8.3492  -25.5042 H         1 LEU         0.0378
    127 H         -79.1701   -5.8552  -25.3775 H         1 LEU         0.0340
    128 H         -78.8311   -5.9947  -27.1201 H         1 LEU         0.0340
    129 H         -79.5543   -4.5028  -26.4703 H         1 LEU         0.0340
    130 H         -84.0531  -10.6883  -28.9209 H         1 LEU         0.1886
    131 H         -82.6720  -10.7775  -31.3715 H         1 LEU         0.0840
    132 H         -85.3955  -11.9979  -30.8557 H         1 LEU         0.0584
    133 H         -83.8014  -12.7107  -30.3181 H         1 LEU         0.0584
    134 H         -82.0542  -12.9743  -32.3122 H         1 LEU         0.0703
    135 H         -86.3132  -12.8196  -32.7883 H         1 LEU         0.0703
    136 H         -81.8492  -14.1456  -34.4785 H         1 LEU         0.0736
    137 H         -86.1169  -13.9902  -34.9572 H         1 LEU         0.0736
    138 H         -86.0932   -9.7662  -30.9188 H         1 LEU         0.1883
    139 H         -86.2907   -9.0661  -33.7077 H         1 LEU         0.0797
    140 H         -88.2881   -9.7344  -32.4375 H         1 LEU         0.0277
    141 H         -88.0984   -8.3322  -31.3564 H         1 LEU         0.0277
    142 H         -88.5136   -8.0853  -33.0704 H         1 LEU         0.0277
    143 H         -84.3893   -7.5422  -31.6479 H         1 LEU         0.1875
    144 H         -85.0385   -4.8397  -32.7395 H         1 LEU         0.0726
    145 O         -82.1406   -4.6664  -33.0671 O.co2     1 LEU        -0.5666
    146 H         -83.3493   -4.0339  -31.0900 H         1 LEU         0.0307
    147 H         -83.2955   -5.7461  -30.4492 H         1 LEU         0.0307
    148 H         -85.8071   -5.4604  -30.1447 H         1 LEU         0.0301
    149 H         -85.4787   -3.6961  -30.3054 H         1 LEU         0.0301
    150 H         -84.1987   -3.6376  -28.3757 H         1 LEU         0.0689
    151 H         -83.9493   -5.4271  -28.3800 H         1 LEU         0.0689
    152 H         -86.7235   -4.6514  -28.0523 H         1 LEU         0.2642
    153 H         -83.6547   -5.1531  -26.3577 H         1 LEU         0.2615
    154 H         -84.4407   -5.4680  -24.8071 H         1 LEU         0.2615
    155 H         -87.7083   -5.0610  -26.0576 H         1 LEU         0.2615
    156 H         -86.7172   -5.4162  -24.6389 H         1 LEU         0.2615
@<TRIPOS>BOND
     1    1    2 1  
     2    2    3 1  
     3    2    5 1  
     4    3    4 2  
     5    3    9 am 
     6    5    6 1  
     7    6    7 1  
     8    6    8 1  
     9    9   10 1  
    10   10   11 1  
    11   10   13 1  
    12   11   12 2  
    13   11   19 am 
    14   13   14 1  
    15   14   15 1  
    16   14   16 2  
    17   15   17 2  
    18   16   18 1  
    19   17   18 1  
    20   19   20 1  
    21   19   25 1  
    22   20   21 1  
    23   20   23 1  
    24   21   22 2  
    25   21   26 am 
    26   23   24 1  
    27   24   25 1  
    28   26   27 1  
    29   27   28 1  
    30   27   30 1  
    31   28   29 2  
    32   28   34 am 
    33   30   31 1  
    34   31   32 2  
    35   31   33 am 
    36   34   35 1  
    37   34   40 1  
    38   35   36 1  
    39   35   38 1  
    40   36   37 2  
    41   36   41 am 
    42   38   39 1  
    43   39   40 1  
    44   41   42 1  
    45   42   43 1  
    46   42   45 1  
    47   43   44 2  
    48   43   49 am 
    49   45   46 1  
    50   46   47 1  
    51   47   48 1  
    52   49   50 1  
    53   50   51 1  
    54   50   53 1  
    55   51   52 2  
    56   51   65 am 
    57   53   54 1  
    58   54   55 ar 
    59   54   56 ar 
    60   55   57 ar 
    61   56   58 ar 
    62   57   59 ar 
    63   58   59 ar 
    64   59   60 1  
    65   60   61 1  
    66   61   62 ar 
    67   61   63 ar 
    68   61   64 ar 
    69   65   66 1  
    70   66   67 1  
    71   66   69 1  
    72   67   68 2  
    73   67   70 am 
    74   70   71 1  
    75   71   72 1  
    76   71   74 1  
    77   72   73 ar 
    78   74   75 1  
    79   75   76 1  
    80   76   77 1  
    81   77   78 ar 
    82   78   79 ar 
    83   78   80 ar 
    84    1   81 1  
    85    1   82 1  
    86    1   83 1  
    87    2   84 1  
    88    5   85 1  
    89    5   86 1  
    90    6   87 1  
    91    7   88 1  
    92    7   89 1  
    93    7   90 1  
    94    8   91 1  
    95    8   92 1  
    96    8   93 1  
    97    9   94 1  
    98   10   95 1  
    99   13   96 1  
   100   13   97 1  
   101   16   98 1  
   102   17   99 1  
   103   18  100 1  
   104   20  101 1  
   105   23  102 1  
   106   23  103 1  
   107   24  104 1  
   108   24  105 1  
   109   25  106 1  
   110   25  107 1  
   111   26  108 1  
   112   27  109 1  
   113   30  110 1  
   114   30  111 1  
   115   33  112 1  
   116   33  113 1  
   117   35  114 1  
   118   38  115 1  
   119   38  116 1  
   120   39  117 1  
   121   39  118 1  
   122   40  119 1  
   123   40  120 1  
   124   41  121 1  
   125   42  122 1  
   126   45  123 1  
   127   45  124 1  
   128   46  125 1  
   129   46  126 1  
   130   48  127 1  
   131   48  128 1  
   132   48  129 1  
   133   49  130 1  
   134   50  131 1  
   135   53  132 1  
   136   53  133 1  
   137   55  134 1  
   138   56  135 1  
   139   57  136 1  
   140   58  137 1  
   141   65  138 1  
   142   66  139 1  
   143   69  140 1  
   144   69  141 1  
   145   69  142 1  
   146   70  143 1  
   147   71  144 1  
   148   72  145 ar 
   149   74  146 1  
   150   74  147 1  
   151   75  148 1  
   152   75  149 1  
   153   76  150 1  
   154   76  151 1  
   155   77  152 1  
   156   79  153 1  
   157   79  154 1  
   158   80  155 1  
   159   80  156 1  
@<TRIPOS>SUBSTRUCTURE
     1 LEU         1

