### 
### Created by X-TOOL on Fri Sep 26 17:35:01 2014
### 

@<TRIPOS>MOLECULE
4lkm_ligand
  148   150     1     0     0
SMALL
GAST_HUCK


@<TRIPOS>ATOM
      1 C          41.1380    9.0930   23.9080 C.2       1 ACE         0.1807
      2 O          40.7350    8.3640   23.0000 O.2       1 ACE        -0.3967
      3 CH3        41.2410   10.5920   23.7110 C.3       1 ACE         0.0376
      4 N          41.4950    8.6050   25.1100 N.am      1 ACE        -0.2517
      5 CA         41.4650    7.1850   25.4910 C.3       1 ACE         0.1337
      6 C          40.0730    6.5470   25.5990 C.2       1 ACE         0.2041
      7 O          39.8900    5.3810   25.2410 O.2       1 ACE        -0.3944
      8 CB         42.2020    7.1750   26.8260 C.3       1 ACE        -0.0104
      9 CG         41.8560    8.5120   27.4030 C.3       1 ACE        -0.0281
     10 CD         42.0280    9.4270   26.2100 C.3       1 ACE         0.0369
     11 N          39.1090    7.2990   26.1250 N.am      1 ACE        -0.2637
     12 CA         37.7330    6.8190   26.2710 C.3       1 ACE         0.1312
     13 C          36.8670    7.6710   25.3570 C.2       1 ACE         0.2040
     14 O          37.0620    8.8810   25.2650 O.2       1 ACE        -0.3944
     15 CB         37.2550    6.9710   27.7140 C.3       1 ACE        -0.0101
     16 CG         38.0030    6.1640   28.7760 C.3       1 ACE        -0.0425
     17 CD1        37.4930    6.5480   30.1580 C.3       1 ACE        -0.0625
     18 CD2        37.8020    4.6740   28.5220 C.3       1 ACE        -0.0625
     19 N          35.9060    7.0470   24.6910 N.am      1 ACE        -0.2625
     20 CA         35.0560    7.7780   23.7640 C.3       1 ACE         0.1369
     21 C          33.7420    7.0580   23.4980 C.2       1 ACE         0.2054
     22 O          33.5640    5.8980   23.8730 O.2       1 ACE        -0.3942
     23 CB         35.8080    7.9460   22.4480 C.3       1 ACE         0.0145
     24 CG         36.3510    6.6580   21.9170 C.2       1 ACE        -0.0027
     25 ND1        35.5400    5.6050   21.5540 N.2       1 ACE        -0.3252
     26 CD2        37.6240    6.2200   21.7660 C.2       1 ACE         0.0291
     27 CE1        36.2870    4.5740   21.2040 C.2       1 ACE         0.0907
     28 NE2        37.5560    4.9200   21.3240 N.pl3     1 ACE        -0.2752
     29 N          32.8280    7.7560   22.8350 N.am      1 ACE        -0.2615
     30 CA         31.5380    7.1830   22.4930 C.3       1 ACE         0.1539
     31 C          31.7290    6.1880   21.3460 C.2       1 ACE         0.2063
     32 O          32.8550    5.9050   20.9360 O.2       1 ACE        -0.3943
     33 CB         30.5630    8.2920   22.0800 C.3       1 ACE         0.0843
     34 OG         31.0780    9.0670   21.0070 O.3       1 ACE        -0.3903
     35 N          30.6240    5.6460   20.8140 N.am      1 ACE        -0.2610
     36 CA         30.7160    4.4910   19.9250 C.3       1 ACE         0.1612
     37 CB         29.3120    3.9070   19.5930 C.3       1 ACE         0.1262
     38 CG2        29.4150    2.7060   18.6760 C.3       1 ACE        -0.0298
     39 OG1        28.8050    3.5380   20.8990 O.3       1 ACE        -0.2685
     40 P          27.5320    4.2710   21.5600 P.3       1 ACE         0.2014
     41 O1P        26.3530    4.2980   20.6810 O.co2     1 ACE        -0.5537
     42 O2P        28.0340    5.6570   21.9100 O.co2     1 ACE        -0.5537
     43 O3P        27.3280    3.4990   22.8380 O.co2     1 ACE        -0.5537
     44 C          31.3940    4.9360   18.5950 C.2       1 ACE         0.2068
     45 O          31.0560    5.9470   18.0340 O.2       1 ACE        -0.3943
     46 N          32.3550    4.1480   18.1230 N.am      1 ACE        -0.2636
     47 CA         33.0920    4.5180   16.9120 C.3       1 ACE         0.1314
     48 C          32.3160    4.1590   15.6550 C.2       1 ACE         0.1992
     49 O          31.4960    3.2430   15.6650 O.2       1 ACE        -0.3947
     50 CB         34.4500    3.8140   16.8760 C.3       1 ACE        -0.0034
     51 CG         35.3450    4.1520   18.0430 C.3       1 ACE        -0.0024
     52 SD         37.0270    3.5560   17.8250 S.3       1 ACE        -0.1639
     53 CE         37.7940    5.0330   17.2020 C.3       1 ACE        -0.0181
     54 N          32.5730    4.8700   14.5570 N.am      1 ACE        -0.2990
     55 C1         47.6360   17.8900   21.4080 C.3       1 ACE        -0.0410
     56 C2         47.2820   18.5240   20.0690 C.3       1 ACE        -0.0502
     57 C3         48.3360   19.5170   19.6000 C.3       1 ACE        -0.0528
     58 C4         48.5580   20.5990   20.6320 C.3       1 ACE        -0.0530
     59 C5         48.9420   19.9870   21.9620 C.3       1 ACE        -0.0528
     60 C6         47.8890   18.9910   22.4300 C.3       1 ACE        -0.0502
     61 C7         46.5610   16.9100   21.8820 C.3       1 ACE        -0.0501
     62 C8         45.5980   16.4120   20.8110 C.3       1 ACE        -0.0507
     63 C9         46.2670   15.7480   19.6290 C.3       1 ACE        -0.0361
     64 C10        45.2670   15.1090   18.6740 C.3       1 ACE         0.0372
     65 C11        44.5290   13.9440   19.2910 C.2       1 ACE         0.1760
     66 O2         45.1380   13.0160   19.8100 O.2       1 ACE        -0.3971
     67 C1         42.3520   12.8250   19.4910 C.3       1 ACE         0.0309
     68 N          43.2040   13.9860   19.2310 N.am      1 ACE        -0.2870
     69 C2         41.3240   13.0860   20.5830 C.3       1 ACE        -0.0326
     70 C3         41.6840   12.6510   21.9990 C.3       1 ACE        -0.0492
     71 C4         41.6200   11.1400   22.1950 C.3       1 ACE        -0.0360
     72 H1         42.0160   10.9621   24.3983 H         1 ACE         0.0502
     73 H2         40.2690   11.0279   23.9853 H         1 ACE         0.0502
     74 H3         42.0322    6.6044   24.7486 H         1 ACE         0.0802
     75 H4         43.2876    7.0754   26.6790 H         1 ACE         0.0313
     76 H5         41.8429    6.3597   27.4712 H         1 ACE         0.0313
     77 H6         42.5428    8.7850   28.2177 H         1 ACE         0.0287
     78 H7         40.8208    8.5307   27.7744 H         1 ACE         0.0287
     79 H8         41.4493   10.3545   26.3318 H         1 ACE         0.0524
     80 H9         43.0872    9.6744   26.0463 H         1 ACE         0.0524
     81 H10        39.3321    8.2244   26.4313 H         1 ACE         0.1883
     82 H11        37.6715    5.7614   25.9749 H         1 ACE         0.0800
     83 H12        36.1983    6.6676   27.7484 H         1 ACE         0.0315
     84 H13        37.3401    8.0343   27.9827 H         1 ACE         0.0315
     85 H14        39.0768    6.3945   28.7148 H         1 ACE         0.0298
     86 H15        38.0311    5.9674   30.9218 H         1 ACE         0.0232
     87 H16        36.4164    6.3323   30.2246 H         1 ACE         0.0232
     88 H17        37.6630    7.6217   30.3263 H         1 ACE         0.0232
     89 H18        38.1768    4.4191   27.5197 H         1 ACE         0.0232
     90 H19        36.7307    4.4325   28.5852 H         1 ACE         0.0232
     91 H20        38.3535    4.0955   29.2777 H         1 ACE         0.0232
     92 H21        35.7642    6.0665   24.8267 H         1 ACE         0.1885
     93 H22        34.8360    8.7683   24.1894 H         1 ACE         0.0817
     94 H23        36.6462    8.6398   22.6093 H         1 ACE         0.0420
     95 H24        35.1193    8.3700   21.7024 H         1 ACE         0.0420
     96 H25        38.5312    6.7907   21.9586 H         1 ACE         0.0729
     97 H26        35.9195    3.6038   20.8729 H         1 ACE         0.1199
     98 H27        38.3636    4.3142   21.1196 H         1 ACE         0.2361
     99 H28        33.0322    8.6970   22.5651 H         1 ACE         0.1884
    100 H29        31.1306    6.6549   23.3677 H         1 ACE         0.0823
    101 H30        30.3849    8.9506   22.9429 H         1 ACE         0.0606
    102 H31        29.6134    7.8340   21.7661 H         1 ACE         0.0606
    103 H32        30.4513    9.7428   20.7766 H         1 ACE         0.2097
    104 H33        29.7285    6.0363   21.0280 H         1 ACE         0.1884
    105 H34        31.3244    3.7127   20.4089 H         1 ACE         0.0830
    106 H35        28.6707    4.6671   19.1230 H         1 ACE         0.0695
    107 H36        28.4073    2.3200   18.4628 H         1 ACE         0.0260
    108 H37        30.0122    1.9219   19.1644 H         1 ACE         0.0260
    109 H38        29.9002    3.0038   17.7348 H         1 ACE         0.0260
    110 H39        32.5765    3.2964   18.5980 H         1 ACE         0.1883
    111 H40        33.2559    5.6056   16.9253 H         1 ACE         0.0800
    112 H41        34.9659    4.1037   15.9487 H         1 ACE         0.0320
    113 H42        34.2771    2.7277   16.8754 H         1 ACE         0.0320
    114 H43        34.9253    3.6958   18.9517 H         1 ACE         0.0378
    115 H44        35.3719    5.2454   18.1604 H         1 ACE         0.0378
    116 H45        38.8595    4.8394   17.0089 H         1 ACE         0.0340
    117 H46        37.6965    5.8382   17.9450 H         1 ACE         0.0340
    118 H47        37.3009    5.3356   16.2665 H         1 ACE         0.0340
    119 H48        32.0868    4.6697   13.7064 H         1 ACE         0.1815
    120 H49        33.2520    5.6037   14.5839 H         1 ACE         0.1815
    121 H50        48.5690   17.3216   21.2800 H         1 ACE         0.0301
    122 H51        46.3214   19.0502   20.1703 H         1 ACE         0.0268
    123 H52        47.1865   17.7282   19.3156 H         1 ACE         0.0268
    124 H53        48.0012   19.9798   18.6599 H         1 ACE         0.0265
    125 H54        49.2825   18.9832   19.4292 H         1 ACE         0.0265
    126 H55        47.6317   21.1795   20.7539 H         1 ACE         0.0265
    127 H56        49.3656   21.2641   20.2922 H         1 ACE         0.0265
    128 H57        49.0387   20.7866   22.7112 H         1 ACE         0.0265
    129 H58        49.9055   19.4673   21.8539 H         1 ACE         0.0265
    130 H59        48.2311   18.5301   23.3684 H         1 ACE         0.0268
    131 H60        46.9472   19.5305   22.6085 H         1 ACE         0.0268
    132 H61        45.9685   17.4105   22.6620 H         1 ACE         0.0268
    133 H62        47.0689   16.0344   22.3125 H         1 ACE         0.0268
    134 H63        45.0205   17.2720   20.4409 H         1 ACE         0.0267
    135 H64        44.9156   15.6838   21.2737 H         1 ACE         0.0267
    136 H65        46.9469   14.9676   20.0014 H         1 ACE         0.0290
    137 H66        46.8446   16.5058   19.0793 H         1 ACE         0.0290
    138 H67        45.8086   14.7511   17.7860 H         1 ACE         0.0502
    139 H68        44.5324   15.8705   18.3733 H         1 ACE         0.0502
    140 H69        42.9886   11.9831   19.8005 H         1 ACE         0.0520
    141 H70        41.8219   12.5623   18.5637 H         1 ACE         0.0520
    142 H71        42.7661   14.8539   18.9965 H         1 ACE         0.1850
    143 H72        40.4004   12.5597   20.3002 H         1 ACE         0.0285
    144 H73        41.1358   14.1695   20.6078 H         1 ACE         0.0285
    145 H74        40.9814   13.1250   22.7002 H         1 ACE         0.0267
    146 H75        42.7070   12.9896   22.2199 H         1 ACE         0.0267
    147 H76        40.8617   10.7477   21.5015 H         1 ACE         0.0290
    148 H77        42.6058   10.7295   21.9309 H         1 ACE         0.0290
@<TRIPOS>BOND
     1    1    2 2  
     2    3    1 1  
     3    1    4 am 
     4   71    3 1  
     5    4    5 1  
     6    4   10 1  
     7    5    6 1  
     8    5    8 1  
     9    6    7 2  
    10    6   11 am 
    11    9    8 1  
    12   10    9 1  
    13   11   12 1  
    14   12   13 1  
    15   12   15 1  
    16   13   14 2  
    17   13   19 am 
    18   15   16 1  
    19   16   17 1  
    20   16   18 1  
    21   19   20 1  
    22   20   21 1  
    23   20   23 1  
    24   21   22 2  
    25   21   29 am 
    26   23   24 1  
    27   24   25 1  
    28   24   26 2  
    29   25   27 2  
    30   26   28 1  
    31   28   27 1  
    32   29   30 1  
    33   30   31 1  
    34   30   33 1  
    35   31   32 2  
    36   31   35 am 
    37   33   34 1  
    38   35   36 1  
    39   36   37 1  
    40   36   44 1  
    41   37   38 1  
    42   37   39 1  
    43   39   40 1  
    44   40   41 ar 
    45   40   42 ar 
    46   40   43 ar 
    47   44   45 2  
    48   44   46 am 
    49   46   47 1  
    50   47   48 1  
    51   47   50 1  
    52   48   49 2  
    53   48   54 am 
    54   50   51 1  
    55   51   52 1  
    56   52   53 1  
    57   55   56 1  
    58   55   60 1  
    59   61   55 1  
    60   56   57 1  
    61   57   58 1  
    62   59   58 1  
    63   60   59 1  
    64   62   61 1  
    65   63   62 1  
    66   64   63 1  
    67   65   64 1  
    68   65   66 2  
    69   68   65 am 
    70   67   68 1  
    71   69   67 1  
    72   70   69 1  
    73   70   71 1  
    74    3   72 1  
    75    3   73 1  
    76    5   74 1  
    77    8   75 1  
    78    8   76 1  
    79    9   77 1  
    80    9   78 1  
    81   10   79 1  
    82   10   80 1  
    83   11   81 1  
    84   12   82 1  
    85   15   83 1  
    86   15   84 1  
    87   16   85 1  
    88   17   86 1  
    89   17   87 1  
    90   17   88 1  
    91   18   89 1  
    92   18   90 1  
    93   18   91 1  
    94   19   92 1  
    95   20   93 1  
    96   23   94 1  
    97   23   95 1  
    98   26   96 1  
    99   27   97 1  
   100   28   98 1  
   101   29   99 1  
   102   30  100 1  
   103   33  101 1  
   104   33  102 1  
   105   34  103 1  
   106   35  104 1  
   107   36  105 1  
   108   37  106 1  
   109   38  107 1  
   110   38  108 1  
   111   38  109 1  
   112   46  110 1  
   113   47  111 1  
   114   50  112 1  
   115   50  113 1  
   116   51  114 1  
   117   51  115 1  
   118   53  116 1  
   119   53  117 1  
   120   53  118 1  
   121   54  119 1  
   122   54  120 1  
   123   55  121 1  
   124   56  122 1  
   125   56  123 1  
   126   57  124 1  
   127   57  125 1  
   128   58  126 1  
   129   58  127 1  
   130   59  128 1  
   131   59  129 1  
   132   60  130 1  
   133   60  131 1  
   134   61  132 1  
   135   61  133 1  
   136   62  134 1  
   137   62  135 1  
   138   63  136 1  
   139   63  137 1  
   140   64  138 1  
   141   64  139 1  
   142   67  140 1  
   143   67  141 1  
   144   68  142 1  
   145   69  143 1  
   146   69  144 1  
   147   70  145 1  
   148   70  146 1  
   149   71  147 1  
   150   71  148 1  
@<TRIPOS>SUBSTRUCTURE
     1 ACE         1

