### 
### Created by X-TOOL on Sun Nov 13 14:26:37 2016
### 

@<TRIPOS>MOLECULE
4rlp_ligand
   67    75     1     0     0
SMALL
GAST_HUCK


@<TRIPOS>ATOM
      1 N1         75.9400   30.7380    5.5510 N.pl3     1 72B        -0.1900
      2 N2         77.8850   31.8200    7.1920 N.pl3     1 72B        -0.2497
      3 C1         75.2890   33.1780    8.9720 C.1       1 72B         0.2037
      4 C2         76.2800   27.4510    7.4880 C.3       1 72B         0.0027
      5 C3         74.9350   27.6380    8.2070 C.3       1 72B         0.0027
      6 C4         73.4080   29.6150    9.3490 C.3       1 72B         0.0099
      7 C5         73.5160   27.8850   12.5130 C.3       1 72B        -0.0155
      8 RU         76.1290   30.7040    7.6560 Ru        1 72B         0.0000
      9 S1         74.3180   29.3190    7.8540 S.3       1 72B        -0.1584
     10 S2         76.5730   30.8470    9.9020 S.3       1 72B        -0.1584
     11 S3         77.4160   28.8330    7.5840 S.3       1 72B        -0.1591
     12 F1         80.7850   33.5130    8.2970 F         1 72B        -0.2293
     13 S4         75.5340   34.0780   10.2370 S.2       1 72B         0.0812
     14 O1         81.0770   33.9880    3.1580 O.2       1 72B        -0.4283
     15 O2         77.7580   32.1150    0.6300 O.2       1 72B        -0.4448
     16 O3         73.5300   29.5390    0.6940 O.3       1 72B        -0.3381
     17 N3         75.0990   32.4050    7.8940 N.1       1 72B        -0.2849
     18 N4         73.2050   29.2340   11.8480 N.3       1 72B        -0.3147
     19 N5         79.5500   33.1500    1.6230 N.am      1 72B        -0.2384
     20 C6         80.0440   33.1970    6.0630 C.ar      1 72B        -0.1512
     21 C7         79.0930   32.6650    5.2200 C.ar      1 72B        -0.1210
     22 C8         79.0570   32.7230    3.8190 C.ar      1 72B        -0.0679
     23 C9         80.0230   33.3610    2.8970 C.2       1 72B         0.1491
     24 C10        78.3700   32.4330    1.6390 C.2       1 72B         0.1311
     25 C11        78.0780   32.1760    3.0400 C.ar      1 72B        -0.0825
     26 C12        77.0010   31.4830    3.6580 C.ar      1 72B        -0.1035
     27 C13        75.8510   30.8090    3.2220 C.ar      1 72B        -0.0817
     28 C14        75.3410   30.5630    2.0300 C.ar      1 72B        -0.0857
     29 C15        74.1700   29.8610    1.8830 C.ar      1 72B         0.0399
     30 C16        73.5260   29.4090    2.9900 C.ar      1 72B        -0.0811
     31 C17        74.0480   29.6510    4.3250 C.ar      1 72B        -0.0813
     32 C18        75.2180   30.3580    4.4400 C.ar      1 72B         0.0426
     33 C19        77.0160   31.4140    5.0340 C.ar      1 72B         0.0464
     34 C20        78.0210   31.9780    5.8330 C.ar      1 72B         0.0341
     35 C21        74.1320   29.5560   10.6810 C.3       1 72B         0.0253
     36 C22        75.1330   30.6830   10.9680 C.3       1 72B         0.0099
     37 C23        77.5700   29.3000   10.3240 C.3       1 72B         0.0027
     38 C24        78.1670   28.6880    9.2370 C.3       1 72B         0.0027
     39 C25        74.2800   29.8900   -0.5470 C.3       1 72B         0.0557
     40 C26        78.8530   32.3560    7.9950 C.ar      1 72B        -0.0091
     41 C27        79.8720   33.0070    7.4570 C.ar      1 72B         0.0344
     42 H3         76.0706   27.2599    6.4252 H         1 72B         0.0384
     43 H4         76.7781   26.5740    7.9271 H         1 72B         0.0384
     44 H5         75.0734   27.5137    9.2911 H         1 72B         0.0384
     45 H6         74.2124   26.8934    7.8418 H         1 72B         0.0384
     46 H7         72.6022   28.8672    9.3880 H         1 72B         0.0392
     47 H8         72.9710   30.6210    9.2653 H         1 72B         0.0392
     48 H9         72.8143   27.7149   13.3429 H         1 72B         0.0388
     49 H10        74.5457   27.8956   12.8998 H         1 72B         0.0388
     50 H11        73.4106   27.0783   11.7727 H         1 72B         0.0388
     51 H12        73.3033   30.0130   12.5895 H         1 72B         0.1219
     52 H13        80.0023   33.4741    0.7921 H         1 72B         0.2141
     53 H14        80.8956   33.7428    5.6731 H         1 72B        -0.0374
     54 H15        75.8577   30.9229    1.1477 H         1 72B         0.0200
     55 H16        72.6013   28.8550    2.8754 H         1 72B         0.0224
     56 H17        73.5286   29.2840    5.2028 H         1 72B         0.0353
     57 H18        74.7699   28.6644   10.5907 H         1 72B         0.0476
     58 H19        74.5784   31.6313   10.9123 H         1 72B         0.0392
     59 H20        75.5034   30.5345   11.9930 H         1 72B         0.0392
     60 H21        78.3598   29.5838   11.0351 H         1 72B         0.0384
     61 H22        76.8932   28.5740   10.7982 H         1 72B         0.0384
     62 H23        78.2216   27.6139    9.4678 H         1 72B         0.0384
     63 H24        79.1845   29.0988    9.1605 H         1 72B         0.0384
     64 H25        73.6902   29.5954   -1.4275 H         1 72B         0.0572
     65 H26        75.2430   29.3584   -0.5562 H         1 72B         0.0572
     66 H27        74.4597   30.9749   -0.5724 H         1 72B         0.0572
     67 H28        78.7859   32.2479    9.0715 H         1 72B         0.0241
@<TRIPOS>BOND
     1    1   32 1  
     2    1   33 1  
     3    2   34 1  
     4    2   40 1  
     5    3   13 2  
     6   17    3 3  
     7    5    4 1  
     8    4   11 1  
     9    9    6 1  
    10    6   35 1  
    11   18    7 1  
    12   36   10 1  
    13   41   12 1  
    14   23   14 2  
    15   24   15 2  
    16   29   16 1  
    17   16   39 1  
    18   35   18 1  
    19   23   19 1  
    20   24   19 am 
    21   21   20 ar 
    22   41   20 ar 
    23   21   22 ar 
    24   34   21 ar 
    25   22   23 1  
    26   22   25 ar 
    27   25   24 1  
    28   26   25 ar 
    29   26   27 ar 
    30   33   26 ar 
    31   27   28 ar 
    32   32   27 ar 
    33   28   29 ar 
    34   30   29 ar 
    35   31   30 ar 
    36   32   31 ar 
    37   34   33 ar 
    38   35   36 1  
    39   38   37 1  
    40   40   41 ar 
    41    9    5 1  
    42   10   37 1  
    43   11   38 1  
    44    4   42 1  
    45    4   43 1  
    46    5   44 1  
    47    5   45 1  
    48    6   46 1  
    49    6   47 1  
    50    7   48 1  
    51    7   49 1  
    52    7   50 1  
    53   18   51 1  
    54   19   52 1  
    55   20   53 1  
    56   28   54 1  
    57   30   55 1  
    58   31   56 1  
    59   35   57 1  
    60   36   58 1  
    61   36   59 1  
    62   37   60 1  
    63   37   61 1  
    64   38   62 1  
    65   38   63 1  
    66   39   64 1  
    67   39   65 1  
    68   39   66 1  
    69   40   67 1  
    70    8    1 1  
    71    8    2 1  
    72    8   17 1  
    73    8    9 1  
    74    8   10 1  
    75    8   11 1  
@<TRIPOS>SUBSTRUCTURE
     1 72B         1

