### 
### Created by X-TOOL on Sun Nov 13 14:26:38 2016
### 

@<TRIPOS>MOLECULE
4z7i_ligand
  176   179     1     0     0
SMALL
GAST_HUCK


@<TRIPOS>ATOM
      1 C6         -8.6490   35.7050   10.7360 C.3       1 MOL        -0.0124
      2 C8         -8.3040   34.6400   11.7830 C.ar      1 MOL        -0.0428
      3 C3         -8.8810   35.8970    8.3860 C.3       1 MOL         0.0391
      4 P11        -8.1490   35.6080    6.7950 P.3       1 MOL         0.0381
      5 O12        -7.9640   36.8800    6.1010 O.co2     1 MOL        -0.6154
      6 O13        -9.0050   34.7400    5.9960 O.co2     1 MOL        -0.6154
      7 N10       -10.1340   35.6160    8.3970 N.4       1 MOL         0.2337
      8 C1         -8.2230   35.2050    9.3510 C.3       1 MOL         0.0167
      9 C17        -7.0190   34.3040   12.1910 C.ar      1 MOL        -0.0603
     10 C18        -6.8720   33.2990   13.1590 C.ar      1 MOL        -0.0686
     11 C19        -7.9160   32.6300   13.7240 C.ar      1 MOL        -0.0687
     12 C20        -9.2120   32.9610   13.3180 C.ar      1 MOL        -0.0686
     13 C21        -9.3750   33.9610   12.3520 C.ar      1 MOL        -0.0603
     14 CB         -4.7880   34.3150    5.4640 C.3       1 MOL        -0.0294
     15 C1         -6.7200   34.9120    7.0030 C.3       1 MOL         0.0382
     16 C          -6.6300   32.6430    5.7820 C.2       1 MOL         0.1828
     17 O          -7.4640   32.1460    5.0540 O.2       1 MOL        -0.3966
     18 CA         -6.3200   34.1310    5.7140 C.3       1 MOL         0.0649
     19 CG         -4.4020   34.8090    4.0540 C.3       1 MOL        -0.0443
     20 CD1        -4.8770   36.2380    3.8030 C.3       1 MOL        -0.0625
     21 CD2        -4.9610   33.8830    2.9680 C.3       1 MOL        -0.0625
     22 N          -5.9230   31.8790    6.7140 N.am      1 MOL        -0.2654
     23 CA         -6.0920   30.4360    6.8320 C.3       1 MOL         0.1309
     24 C          -5.2840   29.7120    5.7620 C.2       1 MOL         0.2040
     25 O          -5.8260   28.9540    4.9560 O.2       1 MOL        -0.3944
     26 CB         -7.5710   30.0500    6.7480 C.3       1 MOL        -0.0122
     27 CG         -8.4010   30.5640    7.9190 C.3       1 MOL        -0.0440
     28 CD         -7.6310   30.4270    9.2250 C.3       1 MOL        -0.0124
     29 CE         -8.0760   31.4600   10.2450 C.3       1 MOL        -0.0354
     30 NZ         -9.4880   31.2650   10.6550 N.4       1 MOL         0.2185
     31 N          -3.9800   29.9640    5.7650 N.am      1 MOL        -0.2625
     32 CA         -3.0520   29.2790    4.8770 C.3       1 MOL         0.1369
     33 C          -2.0210   28.4940    5.6810 C.2       1 MOL         0.2055
     34 O          -1.6120   28.9060    6.7660 O.2       1 MOL        -0.3942
     35 CB         -2.3470   30.2740    3.9500 C.3       1 MOL         0.0145
     36 CG         -3.0400   30.4780    2.6380 C.2       1 MOL        -0.0027
     37 ND1        -2.5720   31.3490    1.6780 N.2       1 MOL        -0.3252
     38 CD2        -4.1610   29.9180    2.1230 C.2       1 MOL         0.0291
     39 CE1        -3.3770   31.3210    0.6300 C.2       1 MOL         0.0907
     40 NE2        -4.3480   30.4610    0.8750 N.pl3     1 MOL        -0.2752
     41 N          -1.6200   27.3530    5.1340 N.am      1 MOL        -0.2624
     42 CA         -0.5790   26.5130    5.7080 C.3       1 MOL         0.1369
     43 C          -0.0830   25.6020    4.6010 C.2       1 MOL         0.2054
     44 O           0.8840   25.9080    3.9030 O.2       1 MOL        -0.3942
     45 CB         -1.1030   25.6910    6.8900 C.3       1 MOL         0.0145
     46 CG         -0.8500   26.3150    8.2280 C.2       1 MOL        -0.0027
     47 ND1        -1.8640   26.7780    9.0390 N.2       1 MOL        -0.3252
     48 CD2         0.3030   26.5430    8.9010 C.2       1 MOL         0.0291
     49 CE1        -1.3470   27.2670   10.1510 C.2       1 MOL         0.0907
     50 NE2        -0.0340   27.1380   10.0930 N.pl3     1 MOL        -0.2752
     51 N          -0.7730   24.4790    4.4480 N.am      1 MOL        -0.2639
     52 CA         -0.6280   23.6260    3.2820 C.3       1 MOL         0.1282
     53 C          -2.0260   23.3290    2.7570 C.2       1 MOL         0.2037
     54 O          -2.9660   24.0760    3.0410 O.2       1 MOL        -0.3944
     55 CB          0.1110   22.3460    3.6290 C.3       1 MOL        -0.0244
     56 N          -2.1530   22.2550    1.9830 N.am      1 MOL        -0.2619
     57 CA         -3.4540   21.7120    1.5890 C.3       1 MOL         0.1404
     58 C          -4.2960   22.5730    0.6540 C.2       1 MOL         0.2060
     59 O          -4.6580   22.1250   -0.4360 O.2       1 MOL        -0.3942
     60 CB         -4.2960   21.4130    2.8330 C.3       1 MOL         0.0214
     61 CG         -4.1190   20.0300    3.3660 C.ar      1 MOL        -0.0386
     62 CD1        -3.1830   19.1780    2.8140 C.ar      1 MOL        -0.0601
     63 CD2        -4.9030   19.5730    4.4090 C.ar      1 MOL        -0.0601
     64 CE1        -3.0230   17.8960    3.3020 C.ar      1 MOL        -0.0686
     65 CE2        -4.7510   18.2940    4.9000 C.ar      1 MOL        -0.0686
     66 CZ         -3.8070   17.4550    4.3440 C.ar      1 MOL        -0.0687
     67 N          -4.5980   23.7950    1.0930 N.am      1 MOL        -0.2614
     68 CA         -5.7640   24.5470    0.6240 C.3       1 MOL         0.1539
     69 C          -6.9910   23.7320    1.0250 C.2       1 MOL         0.2062
     70 O          -7.4300   23.7990    2.1740 O.2       1 MOL        -0.3943
     71 CB         -5.7300   24.8050   -0.8890 C.3       1 MOL         0.0843
     72 OG         -4.5930   25.5660   -1.2580 O.3       1 MOL        -0.3903
     73 N          -7.5270   22.9810    0.0630 N.am      1 MOL        -0.2639
     74 CA         -8.4720   21.8760    0.2820 C.3       1 MOL         0.1282
     75 C          -9.3500   21.9220    1.5310 C.2       1 MOL         0.2031
     76 O         -10.5520   22.1720    1.4530 O.2       1 MOL        -0.3944
     77 CB         -7.6920   20.5570    0.3050 C.3       1 MOL        -0.0244
     78 N          -8.7310   21.6660    2.6780 N.am      1 MOL        -0.2695
     79 CA         -9.4550   21.4180    3.9190 C.3       1 MOL         0.0944
     80 C          -9.3920   22.6000    4.8820 C.2       1 MOL         0.0601
     81 O         -10.2360   22.7570    5.7670 O.co2     1 MOL        -0.5666
     82 CB         -8.8930   20.1670    4.5890 C.3       1 MOL        -0.0177
     83 CG         -9.6780   19.6630    5.7750 C.3       1 MOL        -0.0446
     84 CD         -9.2990   18.2220    6.0410 C.3       1 MOL        -0.0125
     85 CE        -10.3430   17.5130    6.8780 C.3       1 MOL        -0.0354
     86 NZ        -10.5350   16.1180    6.3940 N.4       1 MOL         0.2185
     87 OXT        -8.4880   23.4290    4.7960 O.co2     1 MOL        -0.5666
     88 H1         -8.1158   36.6381   10.9705 H         1 MOL         0.0428
     89 H2         -9.7332   35.8905   10.7429 H         1 MOL         0.0428
     90 H3         -8.7783   36.9690    8.6102 H         1 MOL         0.1066
     91 H4        -10.5100   35.7933    9.3153 H         1 MOL         0.2013
     92 H5        -10.2624   34.6439    8.1633 H         1 MOL         0.2013
     93 H6        -10.6131   36.1902    7.7211 H         1 MOL         0.2013
     94 H7         -8.4627   34.1353    9.2600 H         1 MOL         0.0359
     95 H8         -7.1395   35.3497    9.2286 H         1 MOL         0.0359
     96 H9         -6.1534   34.8048   11.7727 H         1 MOL         0.0557
     97 H10        -5.8685   33.0394   13.4762 H         1 MOL         0.0599
     98 H11        -7.7459   31.8611   14.4689 H         1 MOL         0.0559
     99 H12       -10.0717   32.4546   13.7418 H         1 MOL         0.0599
    100 H13       -10.3793   34.2167   12.0342 H         1 MOL         0.0557
    101 H14        -4.2982   33.3441    5.6292 H         1 MOL         0.0295
    102 H15        -4.4102   35.0454    6.1946 H         1 MOL         0.0295
    103 H16        -6.7740   34.2136    7.8511 H         1 MOL         0.0495
    104 H17        -5.9647   35.6840    7.2113 H         1 MOL         0.0495
    105 H18        -6.8770   34.5590    4.8675 H         1 MOL         0.0554
    106 H19        -3.3043   34.7970    3.9835 H         1 MOL         0.0297
    107 H20        -4.5822   36.5498    2.7901 H         1 MOL         0.0232
    108 H21        -4.4188   36.9118    4.5419 H         1 MOL         0.0232
    109 H22        -5.9722   36.2821    3.8960 H         1 MOL         0.0232
    110 H23        -4.6175   32.8542    3.1510 H         1 MOL         0.0232
    111 H24        -4.6063   34.2181    1.9822 H         1 MOL         0.0232
    112 H25        -6.0604   33.9121    2.9915 H         1 MOL         0.0232
    113 H26        -5.2769   32.3393    7.3228 H         1 MOL         0.1883
    114 H27        -5.7129   30.1260    7.8170 H         1 MOL         0.0800
    115 H28        -7.6437   28.9527    6.7249 H         1 MOL         0.0312
    116 H29        -7.9868   30.4648    5.8179 H         1 MOL         0.0312
    117 H30        -9.3315   29.9811    7.9856 H         1 MOL         0.0269
    118 H31        -8.6434   31.6239    7.7522 H         1 MOL         0.0269
    119 H32        -6.5583   30.5631    9.0233 H         1 MOL         0.0317
    120 H33        -7.8020   29.4215    9.6369 H         1 MOL         0.0317
    121 H34        -7.9695   32.4624    9.8047 H         1 MOL         0.0813
    122 H35        -7.4339   31.3801   11.1345 H         1 MOL         0.0813
    123 H36        -9.7420   31.9689   11.3303 H         1 MOL         0.1994
    124 H37        -9.5954   30.3509   11.0660 H         1 MOL         0.1994
    125 H38       -10.0862   31.3427    9.8474 H         1 MOL         0.1994
    126 H39        -3.6229   30.6489    6.4001 H         1 MOL         0.1885
    127 H40        -3.6238   28.5720    4.2580 H         1 MOL         0.0817
    128 H41        -1.3313   29.9017    3.7508 H         1 MOL         0.0420
    129 H42        -2.2875   31.2444    4.4646 H         1 MOL         0.0420
    130 H43        -4.7948   29.1766    2.6074 H         1 MOL         0.0729
    131 H44        -3.2593   31.9073   -0.2801 H         1 MOL         0.1199
    132 H45        -5.1213   30.2337    0.2338 H         1 MOL         0.2361
    133 H46        -2.0552   27.0553    4.2843 H         1 MOL         0.1885
    134 H47         0.2476   27.1473    6.0605 H         1 MOL         0.0817
    135 H48        -0.6136   24.7061    6.8700 H         1 MOL         0.0420
    136 H49        -2.1887   25.5635    6.7680 H         1 MOL         0.0420
    137 H50         1.3088   26.3003    8.5612 H         1 MOL         0.0729
    138 H51        -1.9082   27.7029   10.9762 H         1 MOL         0.1199
    139 H52         0.6296   27.4351   10.8226 H         1 MOL         0.2361
    140 H53        -1.4178   24.2097    5.1634 H         1 MOL         0.1883
    141 H54        -0.0564   24.1612    2.5095 H         1 MOL         0.0797
    142 H55         0.2055   21.7215    2.7284 H         1 MOL         0.0277
    143 H56        -0.4497   21.7962    4.3992 H         1 MOL         0.0277
    144 H57         1.1127   22.5928    4.0107 H         1 MOL         0.0277
    145 H58        -1.3249   21.7993    1.6565 H         1 MOL         0.1885
    146 H59        -3.2560   20.7644    1.0667 H         1 MOL         0.0823
    147 H60        -5.3563   21.5514    2.5749 H         1 MOL         0.0474
    148 H61        -4.0143   22.1265    3.6214 H         1 MOL         0.0474
    149 H62        -2.5676   19.5189    1.9893 H         1 MOL         0.0557
    150 H63        -5.6469   20.2290    4.8464 H         1 MOL         0.0557
    151 H64        -2.2809   17.2377    2.8650 H         1 MOL         0.0599
    152 H65        -5.3706   17.9486    5.7197 H         1 MOL         0.0599
    153 H66        -3.6828   16.4488    4.7277 H         1 MOL         0.0559
    154 H67        -4.0005   24.2179    1.7743 H         1 MOL         0.1884
    155 H68        -5.7923   25.5207    1.1349 H         1 MOL         0.0823
    156 H69        -6.6378   25.3543   -1.1790 H         1 MOL         0.0606
    157 H70        -5.7012   23.8400   -1.4161 H         1 MOL         0.0606
    158 H71        -4.6001   25.7087   -2.1972 H         1 MOL         0.2097
    159 H72        -7.2663   23.1849   -0.8806 H         1 MOL         0.1883
    160 H73        -9.1512   21.8673   -0.5832 H         1 MOL         0.0797
    161 H74        -8.3889   19.7217    0.4684 H         1 MOL         0.0277
    162 H75        -6.9528   20.5823    1.1192 H         1 MOL         0.0277
    163 H76        -7.1746   20.4202   -0.6560 H         1 MOL         0.0277
    164 H77        -7.7314   21.6425    2.6908 H         1 MOL         0.1875
    165 H78       -10.5112   21.2391    3.6694 H         1 MOL         0.0726
    166 H79        -7.8716   20.3932    4.9288 H         1 MOL         0.0305
    167 H80        -8.8601   19.3645    3.8374 H         1 MOL         0.0305
    168 H81       -10.7546   19.7272    5.5588 H         1 MOL         0.0269
    169 H82        -9.4444   20.2748    6.6588 H         1 MOL         0.0269
    170 H83        -8.3380   18.1991    6.5757 H         1 MOL         0.0317
    171 H84        -9.1964   17.6972    5.0797 H         1 MOL         0.0317
    172 H85       -11.2965   18.0565    6.8052 H         1 MOL         0.0813
    173 H86       -10.0128   17.4906    7.9270 H         1 MOL         0.0813
    174 H87       -11.2317   15.6590    6.9597 H         1 MOL         0.1994
    175 H88        -9.6635   15.6160    6.4614 H         1 MOL         0.1994
    176 H89       -10.8399   16.1346    5.4334 H         1 MOL         0.1994
@<TRIPOS>BOND
     1    1    2 1  
     2    8    1 1  
     3    2    9 ar 
     4    2   13 ar 
     5    4    3 1  
     6    3    7 1  
     7    3    8 1  
     8    4    5 ar 
     9    4    6 ar 
    10   15    4 1  
    11    9   10 ar 
    12   10   11 ar 
    13   12   11 ar 
    14   13   12 ar 
    15   18   14 1  
    16   14   19 1  
    17   18   15 1  
    18   16   17 2  
    19   16   18 1  
    20   16   22 am 
    21   19   20 1  
    22   19   21 1  
    23   22   23 1  
    24   23   24 1  
    25   23   26 1  
    26   24   25 2  
    27   24   31 am 
    28   26   27 1  
    29   27   28 1  
    30   28   29 1  
    31   29   30 1  
    32   31   32 1  
    33   32   33 1  
    34   32   35 1  
    35   33   34 2  
    36   33   41 am 
    37   35   36 1  
    38   36   37 1  
    39   36   38 2  
    40   37   39 2  
    41   38   40 1  
    42   39   40 1  
    43   41   42 1  
    44   42   43 1  
    45   42   45 1  
    46   43   44 2  
    47   43   51 am 
    48   45   46 1  
    49   46   47 1  
    50   46   48 2  
    51   47   49 2  
    52   48   50 1  
    53   49   50 1  
    54   51   52 1  
    55   52   53 1  
    56   52   55 1  
    57   53   54 2  
    58   53   56 am 
    59   56   57 1  
    60   57   58 1  
    61   57   60 1  
    62   58   59 2  
    63   58   67 am 
    64   60   61 1  
    65   61   62 ar 
    66   61   63 ar 
    67   62   64 ar 
    68   63   65 ar 
    69   64   66 ar 
    70   65   66 ar 
    71   67   68 1  
    72   68   69 1  
    73   68   71 1  
    74   69   70 2  
    75   69   73 am 
    76   71   72 1  
    77   73   74 1  
    78   74   75 1  
    79   74   77 1  
    80   75   76 2  
    81   75   78 am 
    82   78   79 1  
    83   79   80 1  
    84   79   82 1  
    85   80   81 ar 
    86   80   87 ar 
    87   82   83 1  
    88   83   84 1  
    89   84   85 1  
    90   85   86 1  
    91    1   88 1  
    92    1   89 1  
    93    3   90 1  
    94    7   91 1  
    95    7   92 1  
    96    7   93 1  
    97    8   94 1  
    98    8   95 1  
    99    9   96 1  
   100   10   97 1  
   101   11   98 1  
   102   12   99 1  
   103   13  100 1  
   104   14  101 1  
   105   14  102 1  
   106   15  103 1  
   107   15  104 1  
   108   18  105 1  
   109   19  106 1  
   110   20  107 1  
   111   20  108 1  
   112   20  109 1  
   113   21  110 1  
   114   21  111 1  
   115   21  112 1  
   116   22  113 1  
   117   23  114 1  
   118   26  115 1  
   119   26  116 1  
   120   27  117 1  
   121   27  118 1  
   122   28  119 1  
   123   28  120 1  
   124   29  121 1  
   125   29  122 1  
   126   30  123 1  
   127   30  124 1  
   128   30  125 1  
   129   31  126 1  
   130   32  127 1  
   131   35  128 1  
   132   35  129 1  
   133   38  130 1  
   134   39  131 1  
   135   40  132 1  
   136   41  133 1  
   137   42  134 1  
   138   45  135 1  
   139   45  136 1  
   140   48  137 1  
   141   49  138 1  
   142   50  139 1  
   143   51  140 1  
   144   52  141 1  
   145   55  142 1  
   146   55  143 1  
   147   55  144 1  
   148   56  145 1  
   149   57  146 1  
   150   60  147 1  
   151   60  148 1  
   152   62  149 1  
   153   63  150 1  
   154   64  151 1  
   155   65  152 1  
   156   66  153 1  
   157   67  154 1  
   158   68  155 1  
   159   71  156 1  
   160   71  157 1  
   161   72  158 1  
   162   73  159 1  
   163   74  160 1  
   164   77  161 1  
   165   77  162 1  
   166   77  163 1  
   167   78  164 1  
   168   79  165 1  
   169   82  166 1  
   170   82  167 1  
   171   83  168 1  
   172   83  169 1  
   173   84  170 1  
   174   84  171 1  
   175   85  172 1  
   176   85  173 1  
   177   86  174 1  
   178   86  175 1  
   179   86  176 1  
@<TRIPOS>SUBSTRUCTURE
     1 MOL         1

