### 
### Created by X-TOOL on Fri Sep 26 17:34:30 2014
### 

@<TRIPOS>MOLECULE
1zlu_ligand
  108   112     1     0     0
SMALL
GAST_HUCK


@<TRIPOS>ATOM
      1 H          20.0740  -32.3597  -37.9624 H         1 MAN229      0.0938
      2 H          21.9615  -33.0182  -36.4838 H         1 MAN229      0.0671
      3 H          20.8471  -35.2977  -36.1345 H         1 MAN229      0.0648
      4 H          19.3237  -33.6701  -34.0640 H         1 MAN229      0.0647
      5 H          18.4498  -35.3377  -36.4703 H         1 MAN229      0.0647
      6 H          16.9820  -34.4662  -34.2918 H         1 MAN229      0.0584
      7 H          16.2995  -34.7643  -35.9264 H         1 MAN229      0.0584
      8 H          19.5299  -32.1017  -35.2920 H         1 MAN229      0.2101
      9 H          21.7137  -35.6342  -34.0856 H         1 MAN229      0.2100
     10 H          19.8186  -35.7911  -33.3319 H         1 MAN229      0.2100
     11 H          16.7890  -32.5539  -36.3997 H         1 MAN229      0.2095
     12 H          17.7483  -35.5012  -38.2207 H         1 MAN229      0.0938
     13 H          18.7892  -33.5875  -39.3592 H         1 MAN229      0.0675
     14 H          19.5547  -34.6501  -41.4006 H         1 MAN229      0.0648
     15 H          21.5957  -36.1507  -39.6956 H         1 MAN229      0.0647
     16 H          19.0173  -37.3348  -40.8278 H         1 MAN229      0.0647
     17 H          21.3870  -38.3906  -39.2280 H         1 MAN229      0.0584
     18 H          20.6925  -39.0304  -40.7560 H         1 MAN229      0.0584
     19 H          21.7106  -33.9525  -39.6584 H         1 MAN229      0.2100
     20 H          21.9021  -35.8218  -41.9729 H         1 MAN229      0.2100
     21 H          19.4048  -39.0138  -38.2096 H         1 MAN229      0.2095
     22 H          14.2607  -37.5665  -43.3787 H         1 MAN229      0.0935
     23 H          16.8450  -36.6856  -44.3469 H         1 MAN229      0.0671
     24 H          17.1012  -34.6309  -43.9129 H         1 MAN229      0.0651
     25 H          14.4045  -34.1854  -42.5987 H         1 MAN229      0.0647
     26 H          16.8395  -35.8240  -42.1420 H         1 MAN229      0.0647
     27 H          15.6187  -35.6973  -39.5288 H         1 MAN229      0.0587
     28 H          16.4402  -34.1615  -39.9686 H         1 MAN229      0.0587
     29 H          16.9129  -37.9306  -42.4254 H         1 MAN229      0.2126
     30 H          14.9294  -37.6589  -45.1823 H         1 MAN229      0.2101
     31 H          15.7322  -32.3480  -42.7767 H         1 MAN229      0.2100
     32 H          14.0361  -34.9116  -45.7377 H         1 MAN229      0.0938
     33 H          15.9302  -35.9772  -46.9035 H         1 MAN229      0.0675
     34 H          17.2399  -33.8221  -47.3245 H         1 MAN229      0.0648
     35 H          15.2247  -33.5637  -49.6094 H         1 MAN229      0.0647
     36 H          15.4008  -31.6399  -47.3060 H         1 MAN229      0.0647
     37 H          13.2645  -32.3920  -49.3424 H         1 MAN229      0.0584
     38 H          14.2210  -30.8751  -49.2385 H         1 MAN229      0.0584
     39 H          16.7222  -35.4980  -49.5718 H         1 MAN229      0.2100
     40 H          17.3287  -32.6104  -49.8605 H         1 MAN229      0.2100
     41 H          12.3667  -31.8218  -47.2894 H         1 MAN229      0.2095
     42 H          13.5969  -36.7610  -49.5209 H         1 MAN229      0.0938
     43 H          13.3798  -37.0755  -46.8432 H         1 MAN229      0.0671
     44 H          15.1837  -38.1654  -46.1228 H         1 MAN229      0.0648
     45 H          15.6789  -40.0169  -48.4335 H         1 MAN229      0.0647
     46 H          17.0905  -37.3572  -48.0505 H         1 MAN229      0.0647
     47 H          17.4812  -39.7419  -49.6341 H         1 MAN229      0.0584
     48 H          18.4927  -38.2596  -49.5547 H         1 MAN229      0.0584
     49 H          12.2400  -38.8721  -47.6960 H         1 MAN229      0.2101
     50 H          13.8246  -40.3974  -47.1959 H         1 MAN229      0.2100
     51 H          16.7160  -40.2451  -46.3552 H         1 MAN229      0.2100
     52 H          17.1101  -37.3770  -51.1797 H         1 MAN229      0.2095
     53 C1         19.9850  -33.2630  -37.3410 C.3       1 MAN229      0.1885
     54 C2         20.9180  -33.1620  -36.1670 C.3       1 MAN229      0.1341
     55 C3         20.8060  -34.4890  -35.3900 C.3       1 MAN229      0.1141
     56 C4         19.4300  -34.5210  -34.7530 C.3       1 MAN229      0.1119
     57 C5         18.4270  -34.4010  -35.8940 C.3       1 MAN229      0.1130
     58 C6         17.0270  -34.1730  -35.3510 C.3       1 MAN229      0.0730
     59 O2         20.4510  -31.9980  -35.5000 O.3       1 MAN229     -0.3841
     60 O3         21.8460  -34.7690  -34.4550 O.3       1 MAN229     -0.3864
     61 O4         19.1930  -35.7170  -34.0430 O.3       1 MAN229     -0.3865
     62 O5         18.6990  -33.3120  -36.7700 O.3       1 MAN229     -0.3405
     63 O6         16.7430  -32.7990  -35.4830 O.3       1 MAN229     -0.3924
     64 C1         18.4020  -35.6900  -39.0850 C.3       1 MAN229      0.1884
     65 C2         19.3630  -34.5210  -39.2630 C.3       1 MAN229      0.1406
     66 C3         20.1680  -34.7670  -40.4950 C.3       1 MAN229      0.1144
     67 C4         20.7750  -36.1560  -40.4280 C.3       1 MAN229      0.1119
     68 C5         19.7780  -37.2240  -40.0410 C.3       1 MAN229      0.1130
     69 C6         20.4570  -38.5580  -39.7910 C.3       1 MAN229      0.0730
     70 O2         20.2840  -34.4080  -38.1740 O.3       1 MAN229     -0.3378
     71 O3         21.2190  -33.8440  -40.4640 O.3       1 MAN229     -0.3864
     72 O4         21.2710  -36.4790  -41.7040 O.3       1 MAN229     -0.3865
     73 O5         19.1970  -36.8040  -38.8440 O.3       1 MAN229     -0.3405
     74 O6         19.6080  -39.4180  -39.0450 O.3       1 MAN229     -0.3924
     75 C1         15.2160  -37.1620  -43.0130 C.3       1 MAN229      0.1854
     76 C2         15.8330  -36.3070  -44.1410 C.3       1 MAN229      0.1343
     77 C3         16.0090  -34.7460  -43.9740 C.3       1 MAN229      0.1206
     78 C4         15.5010  -34.2720  -42.5860 C.3       1 MAN229      0.1123
     79 C5         15.9250  -35.4260  -41.6780 C.3       1 MAN229      0.1134
     80 C6         16.3300  -35.2260  -40.2230 C.3       1 MAN229      0.0796
     81 O1         16.0900  -38.2550  -42.7720 O.3       1 MAN229     -0.3649
     82 O2         14.9700  -36.7100  -45.1600 O.3       1 MAN229     -0.3841
     83 O3         15.6630  -33.8390  -45.0640 O.3       1 MAN229     -0.3400
     84 O4         16.0270  -33.0250  -42.1790 O.3       1 MAN229     -0.3865
     85 O5         14.9250  -36.4120  -41.8400 O.3       1 MAN229     -0.3407
     86 O6         17.5830  -35.9020  -40.2430 O.3       1 MAN229     -0.3460
     87 C1         14.8030  -34.2580  -46.1790 C.3       1 MAN229      0.1888
     88 C2         15.4800  -35.0650  -47.3220 C.3       1 MAN229      0.1406
     89 C3         16.5450  -34.2620  -48.0550 C.3       1 MAN229      0.1144
     90 C4         15.7910  -33.1300  -48.7720 C.3       1 MAN229      0.1119
     91 C5         14.8040  -32.4030  -47.8270 C.3       1 MAN229      0.1130
     92 C6         13.7460  -31.6790  -48.6570 C.3       1 MAN229      0.0730
     93 O2         14.4820  -35.4000  -48.2880 O.3       1 MAN229     -0.3378
     94 O3         17.3050  -35.0950  -48.9390 O.3       1 MAN229     -0.3864
     95 O4         16.7160  -32.1770  -49.2780 O.3       1 MAN229     -0.3865
     96 O5         14.1380  -33.1570  -46.7890 O.3       1 MAN229     -0.3405
     97 O6         12.7750  -31.1260  -47.7910 O.3       1 MAN229     -0.3924
     98 C1         14.3630  -36.7870  -48.7320 C.3       1 MAN229      0.1885
     99 C2         13.7860  -37.7020  -47.6510 C.3       1 MAN229      0.1341
    100 C3         14.7690  -38.7050  -46.9870 C.3       1 MAN229      0.1141
    101 C4         15.9770  -39.1640  -47.8060 C.3       1 MAN229      0.1119
    102 C5         16.5300  -38.0550  -48.6900 C.3       1 MAN229      0.1130
    103 C6         17.4800  -38.6470  -49.7400 C.3       1 MAN229      0.0730
    104 O2         12.7310  -38.3470  -48.3170 O.3       1 MAN229     -0.3841
    105 O3         14.1110  -39.8490  -46.4750 O.3       1 MAN229     -0.3864
    106 O4         17.0240  -39.5510  -46.9260 O.3       1 MAN229     -0.3865
    107 O5         15.5170  -37.3230  -49.3750 O.3       1 MAN229     -0.3405
    108 O6         17.1070  -38.3210  -51.0730 O.3       1 MAN229     -0.3924
@<TRIPOS>BOND
     1   53    1 1  
     2   54    2 1  
     3   55    3 1  
     4   56    4 1  
     5   57    5 1  
     6   58    6 1  
     7   58    7 1  
     8   59    8 1  
     9   60    9 1  
    10   61   10 1  
    11   63   11 1  
    12   64   12 1  
    13   65   13 1  
    14   66   14 1  
    15   67   15 1  
    16   68   16 1  
    17   69   17 1  
    18   69   18 1  
    19   71   19 1  
    20   72   20 1  
    21   74   21 1  
    22   75   22 1  
    23   76   23 1  
    24   77   24 1  
    25   78   25 1  
    26   79   26 1  
    27   80   27 1  
    28   80   28 1  
    29   81   29 1  
    30   82   30 1  
    31   84   31 1  
    32   87   32 1  
    33   88   33 1  
    34   89   34 1  
    35   90   35 1  
    36   91   36 1  
    37   92   37 1  
    38   92   38 1  
    39   94   39 1  
    40   95   40 1  
    41   97   41 1  
    42   98   42 1  
    43   99   43 1  
    44  100   44 1  
    45  101   45 1  
    46  102   46 1  
    47  103   47 1  
    48  103   48 1  
    49  104   49 1  
    50  105   50 1  
    51  106   51 1  
    52  108   52 1  
    53   53   54 1  
    54   53   62 1  
    55   54   55 1  
    56   54   59 1  
    57   55   56 1  
    58   55   60 1  
    59   57   56 1  
    60   56   61 1  
    61   57   58 1  
    62   62   57 1  
    63   58   63 1  
    64   65   64 1  
    65   64   73 1  
    66   65   66 1  
    67   70   65 1  
    68   66   67 1  
    69   66   71 1  
    70   67   68 1  
    71   67   72 1  
    72   68   69 1  
    73   73   68 1  
    74   69   74 1  
    75   75   76 1  
    76   75   81 1  
    77   85   75 1  
    78   77   76 1  
    79   76   82 1  
    80   78   77 1  
    81   77   83 1  
    82   79   78 1  
    83   78   84 1  
    84   80   79 1  
    85   79   85 1  
    86   86   80 1  
    87   87   88 1  
    88   87   96 1  
    89   88   89 1  
    90   88   93 1  
    91   89   90 1  
    92   89   94 1  
    93   91   90 1  
    94   90   95 1  
    95   91   92 1  
    96   96   91 1  
    97   92   97 1  
    98   98   99 1  
    99   98  107 1  
   100   99  100 1  
   101   99  104 1  
   102  100  101 1  
   103  100  105 1  
   104  102  101 1  
   105  101  106 1  
   106  102  103 1  
   107  107  102 1  
   108  103  108 1  
   109   93   98 1  
   110   83   87 1  
   111   64   86 1  
   112   70   53 1  
@<TRIPOS>SUBSTRUCTURE
     1 MAN229      1

