### 
### Created by X-TOOL on Fri Sep 26 17:34:33 2014
### 

@<TRIPOS>MOLECULE
2ci9_ligand
  138   139     1     0     0
SMALL
GAST_HUCK


@<TRIPOS>ATOM
      1 N          35.7020    0.8760   18.3870 N.4       1 HIS472      0.2394
      2 CA         35.5170    1.9970   17.4180 C.3       1 HIS472      0.0761
      3 C          36.8320    2.6580   17.0930 C.2       1 HIS472      0.2287
      4 O          37.3170    3.4950   17.8510 O.2       1 HIS472     -0.3905
      5 CB         34.5860    3.0670   17.9730 C.3       1 HIS472      0.0628
      6 CG         33.1780    2.6180   18.0970 C.2       1 HIS472      0.0593
      7 ND1        32.1260    3.5000   18.1440 N.pl3     1 HIS472     -0.2622
      8 CD2        32.6410    1.3760   18.1650 C.2       1 HIS472     -0.0274
      9 CE1        31.0010    2.8190   18.2540 C.2       1 HIS472      0.0875
     10 NE2        31.2850    1.5300   18.2740 N.2       1 HIS472     -0.3437
     11 N          37.3890    2.2770   15.9520 N.am      1 HIS472     -0.2615
     12 CA         38.6300    2.8650   15.4660 C.3       1 HIS472      0.1371
     13 C          38.2330    3.9050   14.4140 C.2       1 HIS472      0.2528
     14 O          37.3880    3.6280   13.5660 O.2       1 HIS472     -0.3326
     15 CB         39.5830    1.8060   14.8490 C.3       1 HIS472     -0.0045
     16 CG1        39.6700    0.5320   15.7110 C.3       1 HIS472     -0.0493
     17 CG2        40.9660    2.4040   14.6660 C.3       1 HIS472     -0.0584
     18 CD1        40.0740    0.7760   17.1500 C.3       1 HIS472     -0.0648
     19 N          38.8240    5.1010   14.5000 N.2       1 HIS472     -0.1996
     20 CA         38.5850    6.1720   13.5310 C.3       1 HIS472      0.1654
     21 C          39.6720    6.1870   12.4380 C.2       1 HIS472      0.2076
     22 O          40.8440    5.9480   12.6920 O.2       1 HIS472     -0.3942
     23 CB         38.4460    7.5520   14.2010 C.3       1 HIS472      0.0403
     24 CG         37.1510    7.6730   14.9920 C.ar      1 HIS472     -0.0005
     25 CD1        37.0600    7.1950   16.3070 C.ar      1 HIS472     -0.0239
     26 CD2        36.0180    8.2710   14.4430 C.ar      1 HIS472     -0.0239
     27 CE1        35.8760    7.3020   17.0350 C.ar      1 HIS472      0.0115
     28 CE2        34.8160    8.3650   15.1420 C.ar      1 HIS472      0.0115
     29 CZ         34.7460    7.8820   16.4530 C.ar      1 HIS472      0.1728
     30 OH         33.6750    7.9860   17.1180 O.3       1 HIS472     -0.2040
     31 P          32.3820    7.0110   17.0320 P.3       1 HIS472      0.1348
     32 O1P        32.4360    6.1810   18.2610 O.co2     1 HIS472     -0.6653
     33 O2P        32.3950    6.1960   15.7380 O.co2     1 HIS472     -0.6653
     34 O3P        31.1920    7.9610   17.1130 O.co2     1 HIS472     -0.6653
     35 N          39.2410    6.4740   11.2170 N.am      1 HIS472     -0.2620
     36 CA         40.1090    6.5750   10.0460 C.3       1 HIS472      0.1423
     37 C          40.9190    7.8670   10.1070 C.2       1 HIS472      0.2056
     38 O          40.4260    8.8650   10.6340 O.2       1 HIS472     -0.3943
     39 CB         39.2590    6.4320    8.7880 C.3       1 HIS472      0.0406
     40 CG         38.5310    5.0990    8.7750 C.2       1 HIS472      0.0393
     41 OD1        39.2150    4.0700    8.5640 O.co2     1 HIS472     -0.5688
     42 OD2        37.3160    5.0660    9.0420 O.co2     1 HIS472     -0.5688
     43 N          42.1550    7.8260    9.6090 N.am      1 HIS472     -0.2635
     44 CA         43.0490    8.9810    9.6150 C.3       1 HIS472      0.1325
     45 C          42.6420    9.9780    8.5420 C.2       1 HIS472      0.2040
     46 O          42.4230    9.6090    7.3930 O.2       1 HIS472     -0.3944
     47 CB         44.5110    8.5770    9.3680 C.3       1 HIS472     -0.0008
     48 CG         45.4930    9.7520    9.5080 C.3       1 HIS472      0.0044
     49 CD         46.9520    9.3860    9.3210 C.2       1 HIS472      0.0350
     50 OE1        47.2710    8.5140    8.4770 O.co2     1 HIS472     -0.5690
     51 OE2        47.7890   10.0110   10.0120 O.co2     1 HIS472     -0.5690
     52 N          42.5490   11.2400    8.9380 N.am      1 HIS472     -0.2635
     53 CA         42.2800   12.3330    8.0410 C.3       1 HIS472      0.1332
     54 C          43.5470   12.5790    7.1750 C.2       1 HIS472      0.2041
     55 O          44.6720   12.5120    7.6790 O.2       1 HIS472     -0.3944
     56 CB         41.9170   13.5800    8.8850 C.3       1 HIS472     -0.0063
     57 CG1        41.7260   14.7860    8.0290 C.3       1 HIS472     -0.0584
     58 CG2        40.6440   13.2910    9.6840 C.3       1 HIS472     -0.0584
     59 N          43.3470   12.8600    5.8810 N.am      1 HIS472     -0.2640
     60 CA         44.4430   13.1630    4.9480 C.3       1 HIS472      0.1282
     61 C          45.3370   14.2530    5.5350 C.2       1 HIS472      0.2036
     62 O          44.8390   15.2530    6.0920 O.2       1 HIS472     -0.3944
     63 CB         43.8830   13.5930    3.5720 C.3       1 HIS472     -0.0244
     64 N          46.6500   14.0440    5.4050 N.am      1 HIS472     -0.2640
     65 CA         47.6500   14.9440    5.9910 C.3       1 HIS472      0.1282
     66 C          47.5530   16.3710    5.4690 C.2       1 HIS472      0.2038
     67 O          47.1610   16.5990    4.3230 O.2       1 HIS472     -0.3944
     68 CB         49.0810   14.4110    5.7630 C.3       1 HIS472     -0.0244
     69 N          47.9370   17.3240    6.3180 N.am      1 HIS472     -0.2609
     70 CA         47.9750   18.7420    5.9340 C.3       1 HIS472      0.1534
     71 C          49.0210   19.4860    6.7770 C.2       1 HIS472      0.2588
     72 O          50.2220   19.4420    6.4700 O.2       1 HIS472     -0.3679
     73 CB         46.5770   19.3600    6.0960 C.3       1 HIS472      0.0420
     74 CG         46.3110   20.5040    5.1380 C.2       1 HIS472      0.0394
     75 OD1        47.2150   21.2990    4.8500 O.co2     1 HIS472     -0.5688
     76 OD2        45.1570   20.6280    4.6750 O.co2     1 HIS472     -0.5688
     77 O1         48.6367   20.1820    7.8432 O.3       1 HIS472     -0.2909
     78 H1         34.8089    0.4531   18.5860 H         1 HIS472      0.2017
     79 H2         36.1026    1.2323   19.2406 H         1 HIS472      0.2017
     80 H3         36.3192    0.1858   17.9886 H         1 HIS472      0.2017
     81 H4         35.0822    1.5876   16.4942 H         1 HIS472      0.1123
     82 H5         34.6161    3.9376   17.3013 H         1 HIS472      0.0525
     83 H6         34.9472    3.3602   18.9698 H         1 HIS472      0.0525
     84 H7         32.2028    4.5262   18.1005 H         1 HIS472      0.2386
     85 H8         33.1853    0.4331   18.1380 H         1 HIS472      0.0324
     86 H9         30.0027    3.2495   18.3178 H         1 HIS472      0.1149
     87 H10        36.9441    1.5649   15.4089 H         1 HIS472      0.1882
     88 H11        39.1496    3.3599   16.2997 H         1 HIS472      0.0788
     89 H12        39.1893    1.5245   13.8612 H         1 HIS472      0.0343
     90 H13        40.4107   -0.1416   15.2554 H         1 HIS472      0.0267
     91 H14        38.6827    0.0470   15.7085 H         1 HIS472      0.0267
     92 H15        40.8941    3.3124   14.0498 H         1 HIS472      0.0234
     93 H16        41.6185    1.6728   14.1664 H         1 HIS472      0.0234
     94 H17        41.3877    2.6603   15.6491 H         1 HIS472      0.0234
     95 H18        40.1105   -0.1827   17.6882 H         1 HIS472      0.0230
     96 H19        39.3385    1.4382   17.6301 H         1 HIS472      0.0230
     97 H20        41.0664    1.2496   17.1770 H         1 HIS472      0.0230
     98 H21        37.6264    5.9542   13.0374 H         1 HIS472      0.0838
     99 H22        38.4602    8.3283   13.4218 H         1 HIS472      0.0583
    100 H23        39.2949    7.7025   14.8841 H         1 HIS472      0.0583
    101 H24        37.9267    6.7335   16.7662 H         1 HIS472      0.0703
    102 H25        36.0736    8.6764   13.4392 H         1 HIS472      0.0703
    103 H26        35.8320    6.9347   18.0539 H         1 HIS472      0.0736
    104 H27        33.9440    8.8079   14.6745 H         1 HIS472      0.0736
    105 H28        38.2616    6.6309   11.0900 H         1 HIS472      0.1884
    106 H29        40.8213    5.7370   10.0655 H         1 HIS472      0.0819
    107 H30        39.9105    6.4953    7.9039 H         1 HIS472      0.0478
    108 H31        38.5201    7.2463    8.7580 H         1 HIS472      0.0478
    109 H32        42.4840    6.9680    9.2146 H         1 HIS472      0.1883
    110 H33        42.9785    9.4663   10.5996 H         1 HIS472      0.0801
    111 H34        44.5946    8.1703    8.3494 H         1 HIS472      0.0330
    112 H35        44.7877    7.8008   10.0966 H         1 HIS472      0.0330
    113 H36        45.3737   10.1798   10.5143 H         1 HIS472      0.0433
    114 H37        45.2307   10.5090    8.7543 H         1 HIS472      0.0433
    115 H38        42.6720   11.4427    9.9095 H         1 HIS472      0.1883
    116 H39        41.4345   12.0799    7.3844 H         1 HIS472      0.0802
    117 H40        42.7399   13.7800    9.5870 H         1 HIS472      0.0343
    118 H41        41.4702   15.6483    8.6623 H         1 HIS472      0.0234
    119 H42        40.9112   14.6023    7.3132 H         1 HIS472      0.0234
    120 H43        42.6556   14.9971    7.4802 H         1 HIS472      0.0234
    121 H44        40.7986   12.4000   10.3103 H         1 HIS472      0.0234
    122 H45        39.8089   13.1115    8.9909 H         1 HIS472      0.0234
    123 H46        40.4096   14.1536   10.3250 H         1 HIS472      0.0234
    124 H47        42.4095   12.8640    5.5331 H         1 HIS472      0.1883
    125 H48        45.0460   12.2537    4.8084 H         1 HIS472      0.0797
    126 H49        44.7169   13.8148    2.8898 H         1 HIS472      0.0277
    127 H50        43.2603   14.4915    3.6941 H         1 HIS472      0.0277
    128 H51        43.2736   12.7786    3.1534 H         1 HIS472      0.0277
    129 H52        46.9626   13.2458    4.8900 H         1 HIS472      0.1883
    130 H53        47.4668   14.9735    7.0752 H         1 HIS472      0.0797
    131 H54        49.8066   15.1050    6.2122 H         1 HIS472      0.0277
    132 H55        49.2735   14.3275    4.6832 H         1 HIS472      0.0277
    133 H56        49.1824   13.4208    6.2312 H         1 HIS472      0.0277
    134 H57        48.2078   17.0660    7.2454 H         1 HIS472      0.1886
    135 H58        48.2670   18.8142    4.8759 H         1 HIS472      0.0835
    136 H59        46.4791   19.7367    7.1248 H         1 HIS472      0.0480
    137 H60        45.8262   18.5756    5.9197 H         1 HIS472      0.0480
    138 H61        48.8809   21.0931    7.7301 H         1 HIS472      0.2540
@<TRIPOS>BOND
     1    2    1 1  
     2    2    5 1  
     3    3    2 1  
     4    3    4 2  
     5    5    6 1  
     6    6    7 1  
     7    6    8 2  
     8    8   10 1  
     9   10    9 2  
    10    7    9 1  
    11   12   11 1  
    12   12   15 1  
    13   13   12 1  
    14   13   14 2  
    15   15   17 1  
    16   15   16 1  
    17   16   18 1  
    18   11    3 am 
    19   35   36 1  
    20   36   39 1  
    21   36   37 1  
    22   37   38 2  
    23   39   40 1  
    24   40   41 ar 
    25   40   42 ar 
    26   43   44 1  
    27   44   47 1  
    28   44   45 1  
    29   45   46 2  
    30   47   48 1  
    31   48   49 1  
    32   49   51 ar 
    33   49   50 ar 
    34   37   43 am 
    35   52   53 1  
    36   53   56 1  
    37   53   54 1  
    38   54   55 2  
    39   56   58 1  
    40   56   57 1  
    41   45   52 am 
    42   59   60 1  
    43   60   63 1  
    44   60   61 1  
    45   61   62 2  
    46   54   59 am 
    47   64   65 1  
    48   65   68 1  
    49   65   66 1  
    50   66   67 2  
    51   61   64 am 
    52   69   70 1  
    53   70   73 1  
    54   70   71 1  
    55   71   72 2  
    56   73   74 1  
    57   74   75 ar 
    58   74   76 ar 
    59   66   69 am 
    60   19   13 2  
    61   20   19 1  
    62   21   20 1  
    63   20   23 1  
    64   21   22 2  
    65   21   35 am 
    66   23   24 1  
    67   24   25 ar 
    68   24   26 ar 
    69   25   27 ar 
    70   26   28 ar 
    71   27   29 ar 
    72   28   29 ar 
    73   29   30 1  
    74   30   31 1  
    75   31   32 ar 
    76   31   33 ar 
    77   31   34 ar 
    78   71   77 1  
    79    1   78 1  
    80    1   79 1  
    81    1   80 1  
    82    2   81 1  
    83    5   82 1  
    84    5   83 1  
    85    7   84 1  
    86    8   85 1  
    87    9   86 1  
    88   11   87 1  
    89   12   88 1  
    90   15   89 1  
    91   16   90 1  
    92   16   91 1  
    93   17   92 1  
    94   17   93 1  
    95   17   94 1  
    96   18   95 1  
    97   18   96 1  
    98   18   97 1  
    99   20   98 1  
   100   23   99 1  
   101   23  100 1  
   102   25  101 1  
   103   26  102 1  
   104   27  103 1  
   105   28  104 1  
   106   35  105 1  
   107   36  106 1  
   108   39  107 1  
   109   39  108 1  
   110   43  109 1  
   111   44  110 1  
   112   47  111 1  
   113   47  112 1  
   114   48  113 1  
   115   48  114 1  
   116   52  115 1  
   117   53  116 1  
   118   56  117 1  
   119   57  118 1  
   120   57  119 1  
   121   57  120 1  
   122   58  121 1  
   123   58  122 1  
   124   58  123 1  
   125   59  124 1  
   126   60  125 1  
   127   63  126 1  
   128   63  127 1  
   129   63  128 1  
   130   64  129 1  
   131   65  130 1  
   132   68  131 1  
   133   68  132 1  
   134   68  133 1  
   135   69  134 1  
   136   70  135 1  
   137   73  136 1  
   138   73  137 1  
   139   77  138 1  
@<TRIPOS>SUBSTRUCTURE
     1 HIS472      1

