### 
### Created by X-TOOL on Fri Sep 26 17:34:35 2014
### 

@<TRIPOS>MOLECULE
2fv9_ligand
   67    66     1     0     0
SMALL
GAST_HUCK


@<TRIPOS>ATOM
      1 N1          6.7830    5.8730   24.1600 N.am      1 INN        -0.2648
      2 C2          8.9830    8.0260   27.0860 C.3       1 INN        -0.0625
      3 O2          7.7960    3.2790   24.9950 O.2       1 INN        -0.3944
      4 N3          6.6930   -0.6990   24.6430 N.am      1 INN        -0.2800
      5 C4          6.0240    6.8390   24.7220 C.2       1 INN         0.1836
      6 O4          6.8110   12.7670   24.6760 O.3       1 INN        -0.2717
      7 C5          6.1710    4.5910   23.8070 C.3       1 INN         0.1357
      8 C6          6.4670    4.2530   22.3300 C.3       1 INN         0.0026
      9 C8          7.9820    4.1130   22.1070 C.3       1 INN        -0.0558
     10 C9          5.7700    2.9320   21.9540 C.3       1 INN        -0.0558
     11 C10         6.6120    3.4470   24.7240 C.2       1 INN         0.2044
     12 C11         5.9030    1.3460   25.6820 C.3       1 INN         0.1280
     13 C12         5.0270    1.0170   26.8980 C.3       1 INN        -0.0244
     14 N           6.2300   11.5070   24.5920 N.am      1 INN        -0.1641
     15 C           6.8790   10.5180   23.9630 C.2       1 INN         0.2013
     16 O           8.0040   10.6060   23.4610 O.2       1 INN        -0.3968
     17 C0          6.1230    9.2090   23.9390 C.3       1 INN         0.0585
     18 CA          6.7400    8.1740   24.8690 C.3       1 INN         0.0657
     19 CB          6.6590    8.6330   26.3240 C.3       1 INN        -0.0288
     20 C1          7.4860    7.7540   27.2630 C.3       1 INN        -0.0443
     21 C3          7.0650    7.9690   28.7150 C.3       1 INN        -0.0625
     22 O1          4.8630    6.7080   25.1140 O.2       1 INN        -0.3965
     23 C7          5.9280    5.3770   21.4310 C.3       1 INN        -0.0558
     24 N2          5.6000    2.6910   25.1930 N.am      1 INN        -0.2640
     25 C13         5.7370    0.2530   24.6130 C.2       1 INN         0.2015
     26 O3          4.7900    0.2740   23.8200 O.2       1 INN        -0.3945
     27 C14         6.5150   -1.8720   23.7820 C.3       1 INN         0.0708
     28 C15         6.6900   -1.4950   22.3100 C.3       1 INN        -0.0148
     29 N4          5.6040   -2.0950   21.5140 N.4       1 INN         0.2200
     30 H1          7.7549    6.0324   23.9866 H         1 INN         0.1883
     31 H2          9.5559    7.3832   27.7706 H         1 INN         0.0232
     32 H3          9.1931    9.0817   27.3123 H         1 INN         0.0232
     33 H4          9.2751    7.8083   26.0481 H         1 INN         0.0232
     34 H5          7.4955   -0.6074   25.2325 H         1 INN         0.1853
     35 H6          6.2299   13.3516   25.1484 H         1 INN         0.2490
     36 H7          5.0823    4.7012   23.9186 H         1 INN         0.0805
     37 H8          8.1765    3.8725   21.0514 H         1 INN         0.0237
     38 H9          8.3736    3.3069   22.7449 H         1 INN         0.0237
     39 H10         8.4796    5.0594   22.3651 H         1 INN         0.0237
     40 H11         4.6861    3.0311   22.1132 H         1 INN         0.0237
     41 H12         6.1603    2.1192   22.5841 H         1 INN         0.0237
     42 H13         5.9657    2.7023   20.8962 H         1 INN         0.0237
     43 H14         6.9551    1.3398   26.0031 H         1 INN         0.0797
     44 H15         5.2632    0.0044   27.2568 H         1 INN         0.0277
     45 H16         3.9665    1.0658   26.6099 H         1 INN         0.0277
     46 H17         5.2233    1.7449   27.6990 H         1 INN         0.0277
     47 H18         5.3321   11.3396   24.9990 H         1 INN         0.2216
     48 H19         6.1315    8.8133   22.9127 H         1 INN         0.0529
     49 H20         5.0848    9.3932   24.2524 H         1 INN         0.0529
     50 H21         7.7977    8.0435   24.5967 H         1 INN         0.0563
     51 H22         5.6076    8.6010   26.6459 H         1 INN         0.0296
     52 H23         7.0312    9.6661   26.3891 H         1 INN         0.0296
     53 H24         7.2961    6.7021   27.0033 H         1 INN         0.0297
     54 H25         7.6718    7.3280   29.3714 H         1 INN         0.0232
     55 H26         6.0021    7.7105   28.8307 H         1 INN         0.0232
     56 H27         7.2179    9.0233   28.9889 H         1 INN         0.0232
     57 H28         6.4211    6.3246   21.6933 H         1 INN         0.0237
     58 H29         4.8424    5.4756   21.5783 H         1 INN         0.0237
     59 H30         6.1348    5.1353   20.3780 H         1 INN         0.0237
     60 H31         4.6635    3.0413   25.2065 H         1 INN         0.1883
     61 H32         5.5046   -2.2801   23.9323 H         1 INN         0.0573
     62 H33         7.2618   -2.6336   24.0507 H         1 INN         0.0573
     63 H34         7.6590   -1.8699   21.9487 H         1 INN         0.0833
     64 H35         6.6584   -0.4004   22.2061 H         1 INN         0.0833
     65 H36         5.7209   -1.8456   20.5444 H         1 INN         0.1995
     66 H37         4.7158   -1.7515   21.8446 H         1 INN         0.1995
     67 H38         5.6327   -3.0981   21.6087 H         1 INN         0.1995
@<TRIPOS>BOND
     1    5    1 am 
     2    1    7 1  
     3   20    2 1  
     4   11    3 2  
     5   25    4 am 
     6    4   27 1  
     7   18    5 1  
     8    5   22 2  
     9   14    6 1  
    10    7    8 1  
    11    7   11 1  
    12    8    9 1  
    13    8   10 1  
    14    8   23 1  
    15   11   24 am 
    16   12   13 1  
    17   24   12 1  
    18   12   25 1  
    19   15   14 am 
    20   15   16 2  
    21   17   15 1  
    22   18   17 1  
    23   19   18 1  
    24   19   20 1  
    25   20   21 1  
    26   25   26 2  
    27   27   28 1  
    28   28   29 1  
    29    1   30 1  
    30    2   31 1  
    31    2   32 1  
    32    2   33 1  
    33    4   34 1  
    34    6   35 1  
    35    7   36 1  
    36    9   37 1  
    37    9   38 1  
    38    9   39 1  
    39   10   40 1  
    40   10   41 1  
    41   10   42 1  
    42   12   43 1  
    43   13   44 1  
    44   13   45 1  
    45   13   46 1  
    46   14   47 1  
    47   17   48 1  
    48   17   49 1  
    49   18   50 1  
    50   19   51 1  
    51   19   52 1  
    52   20   53 1  
    53   21   54 1  
    54   21   55 1  
    55   21   56 1  
    56   23   57 1  
    57   23   58 1  
    58   23   59 1  
    59   24   60 1  
    60   27   61 1  
    61   27   62 1  
    62   28   63 1  
    63   28   64 1  
    64   29   65 1  
    65   29   66 1  
    66   29   67 1  
@<TRIPOS>SUBSTRUCTURE
     1 INN         1

