### 
### Created by X-TOOL on Fri Sep 26 17:34:35 2014
### 

@<TRIPOS>MOLECULE
2pll_ligand
   29    28     1     0     0
SMALL
GAST_HUCK


@<TRIPOS>ATOM
      1 N          -4.6390   27.2320  -37.0970 N.4       1 ABH         0.2327
      2 CA         -4.4740   27.2370  -38.5850 C.3       1 ABH         0.0284
      3 C          -4.0890   25.7600  -38.9760 C.2       1 ABH         0.0844
      4 O          -3.8510   25.3690  -40.0940 O.co2     1 ABH        -0.5643
      5 OT         -4.0190   24.9450  -37.8980 O.co2     1 ABH        -0.5643
      6 CB         -3.3020   28.1890  -38.9670 C.3       1 ABH         0.0058
      7 CG         -1.9190   27.7260  -38.5060 C.3       1 ABH        -0.0147
      8 CD         -0.8860   28.7820  -38.9530 C.3       1 ABH         0.0208
      9 CE          0.5450   28.3250  -38.7540 C.3       1 ABH         0.0555
     10 B           1.7490   29.3470  -38.6540 B         1 ABH         1.1812
     11 O2          2.9770   28.6150  -38.4790 O.3       1 ABH        -0.2667
     12 O1          1.6200   30.1600  -37.4690 O.3       1 ABH        -0.2667
     13 O3          1.9460   30.2450  -39.7720 O.3       1 ABH        -0.2667
     14 H1         -4.8878   28.1571  -36.7835 H         1 ABH         0.2010
     15 H2         -3.7730   26.9520  -36.6638 H         1 ABH         0.2010
     16 H3         -5.3673   26.5836  -36.8419 H         1 ABH         0.2010
     17 H4         -5.4019   27.5506  -39.0856 H         1 ABH         0.1024
     18 H5         -3.5004   29.1728  -38.5168 H         1 ABH         0.0340
     19 H6         -3.2826   28.2843  -40.0627 H         1 ABH         0.0340
     20 H7         -1.6799   26.7541  -38.9623 H         1 ABH         0.0305
     21 H8         -1.9039   27.6303  -37.4103 H         1 ABH         0.0305
     22 H9         -1.0462   29.6999  -38.3683 H         1 ABH         0.0682
     23 H10        -1.0414   28.9956  -40.0208 H         1 ABH         0.0682
     24 H11         0.5529   27.2707  -38.4404 H         1 ABH         0.2217
     25 H12         1.0224   28.9419  -37.9784 H         1 ABH         0.2217
     26 H13         1.0984   28.4307  -39.6988 H         1 ABH         0.2217
     27 H14         3.7031   29.2246  -38.4184 H         1 ABH         0.2330
     28 H15         2.3482   30.7682  -37.4214 H         1 ABH         0.2330
     29 H18         1.2338   30.3027  -39.1459 H         1 ABH         0.2330
@<TRIPOS>BOND
     1    2    1 1  
     2    2    3 1  
     3    2    6 1  
     4    3    4 ar 
     5    3    5 ar 
     6    6    7 1  
     7    7    8 1  
     8    8    9 1  
     9    9   10 1  
    10   10   11 1  
    11   10   12 1  
    12    1   14 1  
    13    1   15 1  
    14    1   16 1  
    15    2   17 1  
    16    6   18 1  
    17    6   19 1  
    18    7   20 1  
    19    7   21 1  
    20    8   22 1  
    21    8   23 1  
    22    9   24 1  
    23    9   25 1  
    24    9   26 1  
    25   11   27 1  
    26   10   13 1  
    27   12   28 1  
    28   13   29 1  
@<TRIPOS>SUBSTRUCTURE
     1 ABH         1

