### 
### Created by X-TOOL on Fri Sep 26 17:34:46 2014
### 

@<TRIPOS>MOLECULE
3m2u_ligand
   37    36     1     0     0
SMALL
GAST_HUCK


@<TRIPOS>ATOM
      1 C          23.3090   38.9740  -20.0060 C.2       1 TXZ         0.0630
      2 N          23.5660   37.6400  -17.9430 N.am      1 TXZ        -0.2685
      3 O          24.5510   39.2930  -19.8320 O.co2     1 TXZ        -0.5665
      4 P          22.2190   42.0550  -17.8220 P.3       1 TXZ         0.2013
      5 C1         23.3960   36.3990  -17.4470 C.2       1 TXZ         0.1777
      6 O1         22.3400   35.7600  -17.6620 O.2       1 TXZ        -0.3970
      7 C2         24.5470   35.8960  -16.5700 C.3       1 TXZ         0.0373
      8 C3         24.8950   34.3690  -16.5980 C.3       1 TXZ        -0.0360
      9 C4         25.9330   33.8830  -15.5850 C.3       1 TXZ        -0.0502
     10 C5         25.2760   33.4920  -14.2390 C.3       1 TXZ        -0.0441
     11 C6         25.0470   31.9970  -14.2380 C.3       1 TXZ        -0.0093
     12 S6         24.0990   31.4360  -12.8190 S.3       1 TXZ        -0.1783
     13 CA         22.5720   38.3250  -18.8340 C.3       1 TXZ         0.1244
     14 CB         21.7420   39.4370  -18.1170 C.3       1 TXZ         0.1208
     15 CG         21.0540   38.8870  -16.8300 C.3       1 TXZ        -0.0304
     16 O1P        23.5680   42.8180  -17.6170 O.co2     1 TXZ        -0.5537
     17 O2P        21.6410   42.2790  -19.1940 O.co2     1 TXZ        -0.5537
     18 O3P        21.2680   42.3560  -16.6960 O.co2     1 TXZ        -0.5537
     19 O4P        22.6740   40.5030  -17.7110 O.3       1 TXZ        -0.2691
     20 OXT        22.6940   39.2220  -21.0660 O.co2     1 TXZ        -0.5665
     21 H          24.4193   38.1427  -17.6988 H         1 TXZ         0.1876
     22 H          24.2345   36.0985  -15.5456 H         1 TXZ         0.0502
     23 H          25.4363   36.3982  -16.9509 H         1 TXZ         0.0502
     24 H          25.3223   34.1762  -17.5821 H         1 TXZ         0.0290
     25 H          23.9702   33.8456  -16.3553 H         1 TXZ         0.0290
     26 H          26.6398   34.6921  -15.4010 H         1 TXZ         0.0267
     27 H          26.4285   33.0029  -15.9949 H         1 TXZ         0.0267
     28 H          24.3272   34.0154  -14.1204 H         1 TXZ         0.0273
     29 H          25.9272   33.7708  -13.4105 H         1 TXZ         0.0273
     30 H          26.0219   31.5109  -14.2004 H         1 TXZ         0.0374
     31 H          24.4823   31.7461  -15.1359 H         1 TXZ         0.0374
     32 H          23.9393   30.1174  -12.8877 H         1 TXZ         0.1016
     33 H          21.8753   37.5525  -19.1595 H         1 TXZ         0.0756
     34 H          20.9733   39.7995  -18.7994 H         1 TXZ         0.0688
     35 H          20.3834   38.0708  -17.0986 H         1 TXZ         0.0260
     36 H          21.8151   38.5217  -16.1405 H         1 TXZ         0.0260
     37 H          20.4844   39.6855  -16.3545 H         1 TXZ         0.0260
@<TRIPOS>BOND
     1    1    3 ar 
     2   13    1 1  
     3    1   20 ar 
     4    2    5 am 
     5   13    2 1  
     6    4   16 ar 
     7    4   17 ar 
     8    4   18 ar 
     9   19    4 1  
    10    5    6 2  
    11    5    7 1  
    12    7    8 1  
    13    8    9 1  
    14    9   10 1  
    15   10   11 1  
    16   11   12 1  
    17   14   13 1  
    18   14   15 1  
    19   14   19 1  
    20    2   21 1  
    21    7   22 1  
    22    7   23 1  
    23    8   24 1  
    24    8   25 1  
    25    9   26 1  
    26    9   27 1  
    27   10   28 1  
    28   10   29 1  
    29   11   30 1  
    30   11   31 1  
    31   12   32 1  
    32   13   33 1  
    33   14   34 1  
    34   15   35 1  
    35   15   36 1  
    36   15   37 1  
@<TRIPOS>SUBSTRUCTURE
     1 TXZ         1

