### 
### Created by X-TOOL on Fri Sep 26 17:34:57 2014
### 

@<TRIPOS>MOLECULE
4e9d_ligand
  137   141     1     0     0
SMALL
GAST_HUCK


@<TRIPOS>ATOM
      1 CAU         9.0740    7.2360  -20.8090 C.2       1 MOL         0.1808
      2 OAC        10.1330    7.5710  -20.3510 O.2       1 MOL        -0.3967
      3 CAM         8.9750    6.1210  -21.8830 C.3       1 MOL         0.0502
      4 CAN         9.7350    4.7920  -21.5610 C.3       1 MOL         0.0135
      5 CAW         9.4650    4.4020  -20.1250 C.2       1 MOL         0.0202
      6 CAK         8.5850    3.5570  -19.6630 C.2       1 MOL        -0.0646
      7 SAS        10.1880    5.0300  -18.8630 S.3       1 MOL        -0.0290
      8 CAX         8.5640    3.4520  -18.3360 C.ar      1 MOL        -0.0379
      9 CAY         9.4530    4.2790  -17.7310 C.ar      1 MOL         0.0331
     10 CAJ         9.5350    4.3170  -16.3680 C.ar      1 MOL        -0.0542
     11 CAH         8.7340    3.5320  -15.5660 C.ar      1 MOL        -0.0744
     12 CAG         7.8690    2.6930  -16.1660 C.ar      1 MOL        -0.0761
     13 CAI         7.7790    2.6660  -17.5180 C.ar      1 MOL        -0.0726
     14 N           8.0120    7.7840  -20.3100 N.am      1 MOL        -0.2639
     15 CA          8.1550    8.7630  -19.2130 C.3       1 MOL         0.1424
     16 C           6.7830    8.9940  -18.5610 C.2       1 MOL         0.2081
     17 O           5.8860    9.5610  -19.1770 O.2       1 MOL        -0.3941
     18 CB          8.7990    9.9960  -19.7850 C.3       1 MOL         0.0406
     19 CG          8.5850   11.2960  -19.0860 C.2       1 MOL         0.0393
     20 OD1         8.4630   12.3050  -19.7850 O.co2     1 MOL        -0.5688
     21 OD2         8.6400   11.2790  -17.8710 O.co2     1 MOL        -0.5688
     22 N           6.5590    8.5370  -17.2880 N.am      1 MOL        -0.2497
     23 CA          5.2810    8.4980  -16.5370 C.3       1 MOL         0.1340
     24 C           4.6170    9.8120  -16.3240 C.2       1 MOL         0.2066
     25 O           5.2450   10.6730  -15.7480 O.2       1 MOL        -0.3942
     26 CB          5.6540    7.8730  -15.2240 C.3       1 MOL        -0.0104
     27 CG          7.1050    8.1110  -15.1550 C.3       1 MOL        -0.0281
     28 CD          7.5280    7.7660  -16.5160 C.3       1 MOL         0.0369
     29 N           3.4340    9.5180  -16.5010 N.am      1 MOL        -0.2498
     30 CA          2.5590   10.6500  -16.1950 C.3       1 MOL         0.1338
     31 C           2.4490   10.9550  -14.6960 C.2       1 MOL         0.2041
     32 O           2.3440   12.1250  -14.3190 O.2       1 MOL        -0.3944
     33 CB          1.1990   10.2090  -16.7540 C.3       1 MOL        -0.0104
     34 CG          1.2730    8.7310  -16.8290 C.3       1 MOL        -0.0281
     35 CD          2.6960    8.4240  -17.1590 C.3       1 MOL         0.0369
     36 N           2.4740    9.9160  -13.8590 N.am      1 MOL        -0.2637
     37 CA          2.2920   10.0680  -12.4100 C.3       1 MOL         0.1312
     38 C           3.1350    9.0710  -11.6080 C.2       1 MOL         0.2040
     39 O           3.3750    7.9460  -12.0550 O.2       1 MOL        -0.3944
     40 CB          0.8110    9.9190  -12.0390 C.3       1 MOL        -0.0101
     41 CG         -0.1920   10.9100  -12.6440 C.3       1 MOL        -0.0425
     42 CD1        -1.5090   10.2250  -12.9810 C.3       1 MOL        -0.0625
     43 CD2        -0.4100   12.1120  -11.7310 C.3       1 MOL        -0.0625
     44 N           3.5740    9.4970  -10.4220 N.am      1 MOL        -0.2625
     45 CA          4.3910    8.6690   -9.5190 C.3       1 MOL         0.1369
     46 C           4.3170    9.1340   -8.0580 C.2       1 MOL         0.2054
     47 O           3.7080   10.1630   -7.7590 O.2       1 MOL        -0.3942
     48 CB          5.8530    8.6110   -9.9940 C.3       1 MOL         0.0145
     49 CG          6.4160    9.9370  -10.4100 C.2       1 MOL        -0.0027
     50 ND1         6.7880   10.9070   -9.5040 N.2       1 MOL        -0.3252
     51 CD2         6.6850   10.4460  -11.6360 C.2       1 MOL         0.0291
     52 CE1         7.2530   11.9590  -10.1540 C.2       1 MOL         0.0907
     53 NE2         7.2020   11.7040  -11.4490 N.pl3     1 MOL        -0.2752
     54 N           4.9380    8.3710   -7.1550 N.am      1 MOL        -0.2615
     55 CA          4.9930    8.7300   -5.7300 C.3       1 MOL         0.1539
     56 C           5.9810    9.8710   -5.4660 C.2       1 MOL         0.2063
     57 O           6.6600   10.3360   -6.3870 O.2       1 MOL        -0.3943
     58 CB          5.3330    7.5110   -4.8620 C.3       1 MOL         0.0843
     59 OG          6.6320    7.0210   -5.1380 O.3       1 MOL        -0.3903
     60 N           6.0550   10.3060   -4.2050 N.am      1 MOL        -0.2610
     61 CA          6.8760   11.4570   -3.8030 C.3       1 MOL         0.1611
     62 CB          6.8620   11.6330   -2.2830 C.3       1 MOL         0.1262
     63 CG2         7.6980   12.8190   -1.8090 C.3       1 MOL        -0.0298
     64 OG1         5.5130   11.8520   -1.8770 O.3       1 MOL        -0.2685
     65 P           4.8070   10.9510   -0.7440 P.3       1 MOL         0.2014
     66 O1P         5.1000    9.5320   -1.1700 O.co2     1 MOL        -0.5537
     67 O2P         5.4890   11.3570    0.5410 O.co2     1 MOL        -0.5537
     68 O3P         3.3480   11.3440   -0.8280 O.co2     1 MOL        -0.5537
     69 C           8.2730   11.3940   -4.3580 C.2       1 MOL         0.2063
     70 O           8.9840   10.4000   -4.1830 O.2       1 MOL        -0.3943
     71 N           8.6560   12.4650   -5.0470 N.am      1 MOL        -0.2697
     72 CA          9.9420   12.5540   -5.7200 C.3       1 MOL         0.0916
     73 C          10.8820   13.5060   -4.9880 C.2       1 MOL         0.0598
     74 O          11.7300   13.0750   -4.2070 O.co2     1 MOL        -0.5666
     75 CB          9.7450   12.9960   -7.1630 C.3       1 MOL        -0.0300
     76 H           9.4316    6.5243  -22.7869 H         1 MOL         0.0531
     77 H           7.9193    5.8602  -21.9581 H         1 MOL         0.0531
     78 H          10.8054    4.9377  -21.7060 H         1 MOL         0.0499
     79 H           9.3887    4.0014  -22.2267 H         1 MOL         0.0499
     80 H           7.9213    2.9839  -20.3104 H         1 MOL         0.0275
     81 H          10.2554    4.9881  -15.9003 H         1 MOL         0.0559
     82 H           8.7992    3.5890  -14.4794 H         1 MOL         0.0535
     83 H           7.2412    2.0355  -15.5646 H         1 MOL         0.0545
     84 H           7.0550    1.9941  -17.9790 H         1 MOL         0.0535
     85 H           7.0886    7.5427  -20.6698 H         1 MOL         0.1884
     86 H           8.8010    8.4094  -18.4094 H         1 MOL         0.0819
     87 H           8.3493   10.1231  -20.7698 H         1 MOL         0.0478
     88 H           9.8718    9.8123  -19.7256 H         1 MOL         0.0478
     89 H           4.5368    7.9451  -17.1101 H         1 MOL         0.0802
     90 H           5.3925    6.8164  -15.1657 H         1 MOL         0.0313
     91 H           5.1119    8.2995  -14.3800 H         1 MOL         0.0313
     92 H           7.6050    7.5259  -14.3832 H         1 MOL         0.0287
     93 H           7.3650    9.1288  -14.8641 H         1 MOL         0.0287
     94 H           8.5689    8.0024  -16.7367 H         1 MOL         0.0524
     95 H           7.5253    6.6973  -16.7303 H         1 MOL         0.0524
     96 H           2.9441   11.5733  -16.6278 H         1 MOL         0.0802
     97 H           1.0015   10.6526  -17.7299 H         1 MOL         0.0313
     98 H           0.3764   10.5396  -16.1199 H         1 MOL         0.0313
     99 H           0.5919    8.3329  -17.5811 H         1 MOL         0.0287
    100 H           0.9694    8.2660  -15.8911 H         1 MOL         0.0287
    101 H           3.0061    7.4380  -16.8129 H         1 MOL         0.0524
    102 H           2.8795    8.3771  -18.2324 H         1 MOL         0.0524
    103 H           2.6251    8.9819  -14.2398 H         1 MOL         0.1883
    104 H           2.6347   11.0694  -12.1493 H         1 MOL         0.0800
    105 H           0.7663   10.0861  -10.9628 H         1 MOL         0.0315
    106 H           0.5159    8.9420  -12.4218 H         1 MOL         0.0315
    107 H           0.2357   11.2814  -13.5752 H         1 MOL         0.0298
    108 H          -1.3285    9.4283  -13.7027 H         1 MOL         0.0232
    109 H          -1.9406    9.8036  -12.0731 H         1 MOL         0.0232
    110 H          -2.1976   10.9543  -13.4076 H         1 MOL         0.0232
    111 H          -0.7969   11.7716  -10.7705 H         1 MOL         0.0232
    112 H           0.5379   12.6285  -11.5799 H         1 MOL         0.0232
    113 H          -1.1262   12.7919  -12.1924 H         1 MOL         0.0232
    114 H           3.3317   10.4427  -10.1264 H         1 MOL         0.1885
    115 H           3.9693    7.6645   -9.5552 H         1 MOL         0.0817
    116 H           5.8820    7.9604  -10.8680 H         1 MOL         0.0420
    117 H           6.4506    8.2566   -9.1541 H         1 MOL         0.0420
    118 H           6.5215    9.9495  -12.5925 H         1 MOL         0.0729
    119 H           7.6167   12.8804   -9.6991 H         1 MOL         0.1199
    120 H           7.4987   12.3389  -12.1901 H         1 MOL         0.2361
    121 H           5.3894    7.5101   -7.4641 H         1 MOL         0.1884
    122 H           3.9994    9.0822   -5.4530 H         1 MOL         0.0823
    123 H           4.6136    6.7216   -5.0799 H         1 MOL         0.0606
    124 H           5.2936    7.8119   -3.8151 H         1 MOL         0.0606
    125 H           6.8115    6.2611   -4.5795 H         1 MOL         0.2097
    126 H           5.5175    9.8174   -3.4889 H         1 MOL         0.1884
    127 H           6.4241   12.3462   -4.2425 H         1 MOL         0.0830
    128 H           7.2918   10.7328   -1.8437 H         1 MOL         0.0695
    129 H           8.7343   12.6771   -2.1158 H         1 MOL         0.0260
    130 H           7.3090   13.7360   -2.2515 H         1 MOL         0.0260
    131 H           7.6456   12.8877   -0.7224 H         1 MOL         0.0260
    132 H           8.0192   13.2596   -5.1061 H         1 MOL         0.1875
    133 H          10.4021   11.5659   -5.7138 H         1 MOL         0.0723
    134 H          10.8020   14.5796   -5.1583 O.co2     1 MOL        -0.5666
    135 H           9.1178   12.2708   -7.6814 H         1 MOL         0.0270
    136 H           9.2625   13.9732   -7.1797 H         1 MOL         0.0270
    137 H          10.7142   13.0594   -7.6578 H         1 MOL         0.0270
@<TRIPOS>BOND
     1    1    2 2  
     2    1    3 1  
     3    1   14 am 
     4    3    4 1  
     5    4    5 1  
     6    5    6 2  
     7    5    7 1  
     8    6    8 1  
     9    7    9 1  
    10    8    9 ar 
    11    8   13 ar 
    12    9   10 ar 
    13   10   11 ar 
    14   11   12 ar 
    15   12   13 ar 
    16   14   15 1  
    17   15   16 1  
    18   15   18 1  
    19   16   17 2  
    20   16   22 am 
    21   18   19 1  
    22   19   20 ar 
    23   19   21 ar 
    24   22   23 1  
    25   22   28 1  
    26   23   24 1  
    27   23   26 1  
    28   24   25 2  
    29   24   29 am 
    30   26   27 1  
    31   27   28 1  
    32   29   30 1  
    33   29   35 1  
    34   30   31 1  
    35   30   33 1  
    36   31   32 2  
    37   31   36 am 
    38   33   34 1  
    39   34   35 1  
    40   36   37 1  
    41   37   38 1  
    42   37   40 1  
    43   38   39 2  
    44   38   44 am 
    45   40   41 1  
    46   41   42 1  
    47   41   43 1  
    48   44   45 1  
    49   45   46 1  
    50   45   48 1  
    51   46   47 2  
    52   46   54 am 
    53   48   49 1  
    54   49   50 1  
    55   49   51 2  
    56   50   52 2  
    57   51   53 1  
    58   52   53 1  
    59   54   55 1  
    60   55   56 1  
    61   55   58 1  
    62   56   57 2  
    63   56   60 am 
    64   58   59 1  
    65   60   61 1  
    66   61   62 1  
    67   61   69 1  
    68   62   63 1  
    69   62   64 1  
    70   64   65 1  
    71   65   66 ar 
    72   65   67 ar 
    73   65   68 ar 
    74   69   70 2  
    75   69   71 am 
    76   71   72 1  
    77   72   73 1  
    78   72   75 1  
    79   73   74 ar 
    80    3   76 1  
    81    3   77 1  
    82    4   78 1  
    83    4   79 1  
    84    6   80 1  
    85   10   81 1  
    86   11   82 1  
    87   12   83 1  
    88   13   84 1  
    89   14   85 1  
    90   15   86 1  
    91   18   87 1  
    92   18   88 1  
    93   23   89 1  
    94   26   90 1  
    95   26   91 1  
    96   27   92 1  
    97   27   93 1  
    98   28   94 1  
    99   28   95 1  
   100   30   96 1  
   101   33   97 1  
   102   33   98 1  
   103   34   99 1  
   104   34  100 1  
   105   35  101 1  
   106   35  102 1  
   107   36  103 1  
   108   37  104 1  
   109   40  105 1  
   110   40  106 1  
   111   41  107 1  
   112   42  108 1  
   113   42  109 1  
   114   42  110 1  
   115   43  111 1  
   116   43  112 1  
   117   43  113 1  
   118   44  114 1  
   119   45  115 1  
   120   48  116 1  
   121   48  117 1  
   122   51  118 1  
   123   52  119 1  
   124   53  120 1  
   125   54  121 1  
   126   55  122 1  
   127   58  123 1  
   128   58  124 1  
   129   59  125 1  
   130   60  126 1  
   131   61  127 1  
   132   62  128 1  
   133   63  129 1  
   134   63  130 1  
   135   63  131 1  
   136   71  132 1  
   137   72  133 1  
   138   73  134 ar 
   139   75  135 1  
   140   75  136 1  
   141   75  137 1  
@<TRIPOS>SUBSTRUCTURE
     1 MOL         1

