### 
### Created by X-TOOL on Fri Sep 26 17:34:55 2014
### 

@<TRIPOS>MOLECULE
4eg7_ligand
   20    19     1     0     0
SMALL
GAST_HUCK


@<TRIPOS>ATOM
      1 N          -7.7090  -15.1390  -55.2150 N.4       1 MET         0.2327
      2 CA         -7.5550  -15.6400  -53.8430 C.3       1 MET         0.0291
      3 C          -8.8680  -16.1930  -53.2750 C.2       1 MET         0.0844
      4 O          -8.8370  -16.8460  -52.2340 O.co2     1 MET        -0.5643
      5 CB         -7.0400  -14.5380  -52.9010 C.3       1 MET         0.0114
      6 CG         -5.7570  -13.8490  -53.3440 C.3       1 MET         0.0001
      7 SD         -5.3090  -12.4030  -52.3560 S.3       1 MET        -0.1638
      8 CE         -3.6810  -12.0280  -53.0320 C.3       1 MET        -0.0181
      9 OXT        -9.9730  -16.0140  -53.7990 O.co2     1 MET        -0.5643
     10 H          -8.0508  -15.8907  -55.8138 H         1 MET         0.2010
     11 H          -8.3764  -14.3676  -55.2211 H         1 MET         0.2010
     12 H          -6.8064  -14.8120  -55.5596 H         1 MET         0.2010
     13 H          -6.8274  -16.4497  -53.8993 H         1 MET         0.1024
     14 H          -6.8220  -15.0196  -51.9478 H         1 MET         0.0347
     15 H          -7.8119  -13.7690  -52.8696 H         1 MET         0.0347
     16 H          -5.9153  -13.5028  -54.3654 H         1 MET         0.0379
     17 H          -4.9501  -14.5737  -53.2356 H         1 MET         0.0379
     18 H          -3.0211  -12.8825  -52.8821 H         1 MET         0.0340
     19 H          -3.7709  -11.8194  -54.0981 H         1 MET         0.0340
     20 H          -3.2698  -11.1561  -52.5233 H         1 MET         0.0340
@<TRIPOS>BOND
     1    1    2 1  
     2    2    3 1  
     3    2    5 1  
     4    3    4 ar 
     5    3    9 ar 
     6    5    6 1  
     7    6    7 1  
     8    7    8 1  
     9    1   10 1  
    10    1   11 1  
    11    1   12 1  
    12    2   13 1  
    13    5   14 1  
    14    5   15 1  
    15    6   16 1  
    16    6   17 1  
    17    8   18 1  
    18    8   19 1  
    19    8   20 1  
@<TRIPOS>SUBSTRUCTURE
     1 MET         1

