### 
### Created by X-TOOL on Sat Nov 28 16:03:47 2015
### 

@<TRIPOS>MOLECULE
4v1c_ligand
  140   140     1     0     0
SMALL
GAST_HUCK


@<TRIPOS>ATOM
      1 N         -19.9020  -11.4200  -28.0690 N.4       1 ARG         0.2290
      2 CA        -20.1320  -12.8570  -27.8650 C.3       1 ARG         0.0787
      3 C         -19.9550  -13.6440  -29.1560 C.3       1 ARG         0.2563
      4 O         -20.8450  -13.6500  -30.0100 O.3       1 ARG        -0.3215
      5 CB        -21.5330  -13.1150  -27.2990 C.3       1 ARG         0.0042
      6 CG        -21.7130  -14.5020  -26.7240 C.3       1 ARG        -0.0143
      7 CD        -22.5060  -14.4750  -25.4060 C.3       1 ARG         0.0627
      8 NE        -23.2660  -15.7080  -25.1700 N.pl3     1 ARG        -0.2723
      9 CZ        -22.7460  -16.8410  -24.6960 C.cat     1 ARG         0.2882
     10 NH1       -21.4540  -16.9120  -24.3980 N.pl3     1 ARG        -0.2849
     11 NH2       -23.5200  -17.9090  -24.5250 N.pl3     1 ARG        -0.2849
     12 N         -18.8150  -14.3170  -29.2890 N.4       1 ARG         0.3036
     13 CA        -18.4800  -14.9910  -30.5440 C.3       1 ARG         0.2150
     14 C         -18.6450  -16.5160  -30.5500 C.2       1 ARG         0.2819
     15 O         -18.9670  -17.1170  -29.5280 O.2       1 ARG        -0.3351
     16 CB        -17.0640  -14.6290  -31.0260 C.3       1 ARG         0.1328
     17 OG1       -16.1130  -14.8640  -29.9790 O.3       1 ARG        -0.3844
     18 CG2       -17.0260  -13.1740  -31.4530 C.3       1 ARG        -0.0315
     19 C         -17.5040  -19.3440  -31.2560 C.2       1 ARG         0.2041
     20 N         -18.4360  -17.1250  -31.7160 N.am      1 ARG        -0.2578
     21 O         -16.3720  -19.3210  -31.7000 O.2       1 ARG        -0.3944
     22 CA        -18.6240  -18.5530  -31.8860 C.3       1 ARG         0.1313
     23 CB        -18.6690  -18.8340  -33.3790 C.3       1 ARG        -0.0122
     24 CD        -19.0340  -20.6500  -35.1230 C.3       1 ARG        -0.0325
     25 CE        -18.8400  -22.1380  -35.3790 C.3       1 ARG         0.0309
     26 CG        -18.7710  -20.3300  -33.6500 C.3       1 ARG        -0.0470
     27 NZ        -19.0820  -22.3670  -36.7890 N.am      1 ARG        -0.2870
     28 CAA       -20.9530  -24.7990  -40.4790 C.3       1 ARG        -0.0632
     29 OAD       -20.4330  -24.0760  -36.6720 O.2       1 ARG        -0.3971
     30 CAF       -21.1500  -23.7290  -39.4290 C.3       1 ARG        -0.0389
     31 CAJ       -19.8330  -23.2560  -38.8320 C.3       1 ARG         0.0370
     32 CAN       -19.8060  -23.2560  -37.3190 C.2       1 ARG         0.1760
     33 N         -17.8300  -20.0760  -30.2040 N.am      1 ARG        -0.2636
     34 CA        -16.8300  -20.8950  -29.5280 C.3       1 ARG         0.1330
     35 C         -17.4070  -22.2550  -29.1560 C.2       1 ARG         0.2041
     36 O         -18.6240  -22.4070  -29.0380 O.2       1 ARG        -0.3944
     37 CB        -16.3060  -20.1700  -28.2860 C.3       1 ARG         0.0045
     38 CG        -15.7240  -18.7720  -28.5570 C.3       1 ARG         0.0412
     39 CD        -14.4090  -18.8020  -29.3480 C.2       1 ARG         0.1737
     40 OE1       -13.8170  -19.8690  -29.5890 O.2       1 ARG        -0.3973
     41 NE2       -13.9520  -17.6200  -29.7590 N.am      1 ARG        -0.3009
     42 N         -16.5360  -23.2470  -28.9870 N.am      1 ARG        -0.2613
     43 CA        -16.9770  -24.5850  -28.5970 C.3       1 ARG         0.1565
     44 C         -17.5120  -24.5570  -27.1770 C.2       1 ARG         0.2065
     45 O         -17.0130  -23.8090  -26.3350 O.2       1 ARG        -0.3943
     46 CB        -15.8300  -25.5820  -28.6200 C.3       1 ARG         0.0924
     47 OG1       -15.0190  -25.3830  -27.4540 O.3       1 ARG        -0.3874
     48 CG2       -14.9840  -25.4380  -29.9120 C.3       1 ARG        -0.0346
     49 N         -18.5260  -25.3670  -26.9020 N.am      1 ARG        -0.2639
     50 CA        -19.1810  -25.3130  -25.6000 C.3       1 ARG         0.1282
     51 C         -18.3640  -26.0010  -24.5160 C.2       1 ARG         0.2031
     52 O         -17.4050  -26.7260  -24.8110 O.2       1 ARG        -0.3944
     53 CB        -20.5640  -25.9040  -25.6770 C.3       1 ARG        -0.0244
     54 N         -18.7510  -25.7550  -23.2610 N.am      1 ARG        -0.2671
     55 CA        -18.0600  -26.2920  -22.0850 C.3       1 ARG         0.1227
     56 C         -16.5450  -26.2360  -22.2520 C.2       1 ARG         0.2149
     57 O         -15.9350  -25.1870  -22.0600 O.co2     1 ARG        -0.4120
     58 CB        -18.5210  -27.7260  -21.7870 C.3       1 ARG        -0.0124
     59 CG        -17.9200  -28.3470  -20.5350 C.3       1 ARG        -0.0161
     60 CD        -18.1870  -27.4940  -19.2940 C.3       1 ARG         0.0627
     61 NE        -19.5940  -27.4950  -18.8880 N.pl3     1 ARG        -0.2723
     62 CZ        -20.0680  -26.8320  -17.8340 C.cat     1 ARG         0.2882
     63 NH1       -19.2460  -26.1130  -17.0770 N.pl3     1 ARG        -0.2849
     64 NH2       -21.3620  -26.8880  -17.5340 N.pl3     1 ARG        -0.2849
     65 OXT       -18.9200  -14.2830  -29.3600 O.3       1 ARG        -0.2525
     66 H         -20.0275  -10.9324  -27.1958 H         1 ARG         0.2001
     67 H         -20.5585  -11.0677  -28.7479 H         1 ARG         0.2001
     68 H         -18.9622  -11.2742  -28.4032 H         1 ARG         0.2001
     69 H         -19.3914  -13.2187  -27.1365 H         1 ARG         0.0966
     70 H         -20.5045  -13.2959  -30.8232 H         1 ARG         0.2185
     71 H         -22.2649  -12.9776  -28.1086 H         1 ARG         0.0325
     72 H         -21.7256  -12.3816  -26.5021 H         1 ARG         0.0325
     73 H         -20.7221  -14.9404  -26.5345 H         1 ARG         0.0301
     74 H         -22.2550  -15.1222  -27.4531 H         1 ARG         0.0301
     75 H         -23.2095  -13.6300  -25.4372 H         1 ARG         0.0689
     76 H         -21.7998  -14.3338  -24.5746 H         1 ARG         0.0689
     77 H         -24.2731  -15.6977  -25.3859 H         1 ARG         0.2642
     78 H         -21.0573  -17.7893  -24.0322 H         1 ARG         0.2615
     79 H         -20.8485  -16.0897  -24.5326 H         1 ARG         0.2615
     80 H         -24.5230  -17.8602  -24.7543 H         1 ARG         0.2615
     81 H         -23.1164  -18.7849  -24.1632 H         1 ARG         0.2615
     82 H         -18.8163  -15.0272  -28.5737 H         1 ARG         0.2105
     83 H         -18.0718  -13.6603  -29.1091 H         1 ARG         0.2105
     84 H         -16.8070  -15.2612  -31.8887 H         1 ARG         0.0665
     85 H         -16.3335  -14.3281  -29.2263 H         1 ARG         0.2099
     86 H         -16.0126  -12.9191  -31.7967 H         1 ARG         0.0256
     87 H         -17.2954  -12.5343  -30.5997 H         1 ARG         0.0256
     88 H         -17.7423  -13.0134  -32.2723 H         1 ARG         0.0256
     89 H         -18.1397  -16.5796  -32.5001 H         1 ARG         0.1891
     90 H         -19.5758  -18.8521  -31.4228 H         1 ARG         0.0802
     91 H         -17.7520  -18.4455  -33.8460 H         1 ARG         0.0312
     92 H         -19.5442  -18.3292  -33.8139 H         1 ARG         0.0312
     93 H         -20.0666  -20.3689  -35.3774 H         1 ARG         0.0285
     94 H         -18.3334  -20.0788  -35.7498 H         1 ARG         0.0285
     95 H         -19.5520  -22.7199  -34.7754 H         1 ARG         0.0520
     96 H         -17.8126  -22.4338  -35.1204 H         1 ARG         0.0520
     97 H         -19.5956  -20.7405  -33.0487 H         1 ARG         0.0268
     98 H         -17.8260  -20.8066  -33.3503 H         1 ARG         0.0268
     99 H         -18.6189  -21.7448  -37.4202 H         1 ARG         0.1850
    100 H         -21.9312  -25.1057  -40.8779 H         1 ARG         0.0231
    101 H         -20.4523  -25.6681  -40.0274 H         1 ARG         0.0231
    102 H         -20.3323  -24.4016  -41.2956 H         1 ARG         0.0231
    103 H         -21.7778  -24.1360  -38.6227 H         1 ARG         0.0287
    104 H         -21.6579  -22.8695  -39.8908 H         1 ARG         0.0287
    105 H         -19.6440  -22.2301  -39.1810 H         1 ARG         0.0502
    106 H         -19.0325  -23.9191  -39.1919 H         1 ARG         0.0502
    107 H         -18.7720  -20.0680  -29.8684 H         1 ARG         0.1883
    108 H         -15.9881  -21.0545  -30.2178 H         1 ARG         0.0801
    109 H         -15.5160  -20.7888  -27.8355 H         1 ARG         0.0337
    110 H         -17.1383  -20.0629  -27.5748 H         1 ARG         0.0337
    111 H         -15.5390  -18.2782  -27.5917 H         1 ARG         0.0504
    112 H         -16.4624  -18.1920  -29.1300 H         1 ARG         0.0504
    113 H         -13.1000  -17.5670  -30.2798 H         1 ARG         0.1814
    114 H         -14.4610  -16.7858  -29.5467 H         1 ARG         0.1814
    115 H         -15.5615  -23.0738  -29.1295 H         1 ARG         0.1884
    116 H         -17.7662  -24.9168  -29.2877 H         1 ARG         0.0826
    117 H         -16.2469  -26.5995  -28.5919 H         1 ARG         0.0639
    118 H         -15.5469  -25.5175  -26.6757 H         1 ARG         0.2101
    119 H         -14.1646  -26.1717  -29.8974 H         1 ARG         0.0257
    120 H         -14.5656  -24.4221  -29.9650 H         1 ARG         0.0257
    121 H         -15.6218  -25.6182  -30.7899 H         1 ARG         0.0257
    122 H         -18.8431  -26.0183  -27.5914 H         1 ARG         0.1883
    123 H         -19.2802  -24.2537  -25.3207 H         1 ARG         0.0797
    124 H         -21.0399  -25.8537  -24.6865 H         1 ARG         0.0277
    125 H         -20.4968  -26.9538  -25.9985 H         1 ARG         0.0277
    126 H         -21.1656  -25.3362  -26.4021 H         1 ARG         0.0277
    127 H         -19.5528  -25.1751  -23.1166 H         1 ARG         0.1876
    128 H         -18.3270  -25.6639  -21.2223 H         1 ARG         0.0751
    129 O1        -15.9143  -27.2733  -22.5894 O.co2     1 ARG        -0.4120
    130 H         -18.2487  -28.3574  -22.6456 H         1 ARG         0.0307
    131 H         -19.6149  -27.7158  -21.6715 H         1 ARG         0.0307
    132 H         -16.8331  -28.4450  -20.6726 H         1 ARG         0.0301
    133 H         -18.3618  -29.3430  -20.3842 H         1 ARG         0.0301
    134 H         -17.8857  -26.4583  -19.5096 H         1 ARG         0.0689
    135 H         -17.5826  -27.8863  -18.4629 H         1 ARG         0.0689
    136 H         -20.2589  -28.0426  -19.4527 H         1 ARG         0.2642
    137 H         -19.6123  -25.6004  -16.2621 H         1 ARG         0.2615
    138 H         -18.2426  -26.0683  -17.3051 H         1 ARG         0.2615
    139 H         -22.0025  -27.4442  -18.1182 H         1 ARG         0.2615
    140 H         -21.7240  -26.3752  -16.7174 H         1 ARG         0.2615
@<TRIPOS>BOND
     1    2    1 1  
     2    3    2 1  
     3    2    5 1  
     4    3    4 1  
     5   12    3 1  
     6   65    3 1  
     7    5    6 1  
     8    6    7 1  
     9    7    8 1  
    10    8    9 ar 
    11    9   10 ar 
    12    9   11 ar 
    13   13   12 1  
    14   14   13 1  
    15   13   16 1  
    16   13   65 1  
    17   14   15 2  
    18   20   14 am 
    19   16   17 1  
    20   16   18 1  
    21   19   21 2  
    22   22   19 1  
    23   19   33 am 
    24   22   20 1  
    25   23   22 1  
    26   26   23 1  
    27   25   24 1  
    28   24   26 1  
    29   27   25 1  
    30   32   27 am 
    31   30   28 1  
    32   32   29 2  
    33   31   30 1  
    34   31   32 1  
    35   33   34 1  
    36   34   35 1  
    37   34   37 1  
    38   35   36 2  
    39   35   42 am 
    40   37   38 1  
    41   38   39 1  
    42   39   40 2  
    43   39   41 am 
    44   42   43 1  
    45   43   44 1  
    46   43   46 1  
    47   44   45 2  
    48   44   49 am 
    49   46   47 1  
    50   46   48 1  
    51   49   50 1  
    52   50   51 1  
    53   50   53 1  
    54   51   52 2  
    55   51   54 am 
    56   54   55 1  
    57   55   56 1  
    58   55   58 1  
    59   56   57 ar 
    60   58   59 1  
    61   59   60 1  
    62   60   61 1  
    63   61   62 ar 
    64   62   63 ar 
    65   62   64 ar 
    66    1   66 1  
    67    1   67 1  
    68    1   68 1  
    69    2   69 1  
    70    4   70 1  
    71    5   71 1  
    72    5   72 1  
    73    6   73 1  
    74    6   74 1  
    75    7   75 1  
    76    7   76 1  
    77    8   77 1  
    78   10   78 1  
    79   10   79 1  
    80   11   80 1  
    81   11   81 1  
    82   12   82 1  
    83   12   83 1  
    84   16   84 1  
    85   17   85 1  
    86   18   86 1  
    87   18   87 1  
    88   18   88 1  
    89   20   89 1  
    90   22   90 1  
    91   23   91 1  
    92   23   92 1  
    93   24   93 1  
    94   24   94 1  
    95   25   95 1  
    96   25   96 1  
    97   26   97 1  
    98   26   98 1  
    99   27   99 1  
   100   28  100 1  
   101   28  101 1  
   102   28  102 1  
   103   30  103 1  
   104   30  104 1  
   105   31  105 1  
   106   31  106 1  
   107   33  107 1  
   108   34  108 1  
   109   37  109 1  
   110   37  110 1  
   111   38  111 1  
   112   38  112 1  
   113   41  113 1  
   114   41  114 1  
   115   42  115 1  
   116   43  116 1  
   117   46  117 1  
   118   47  118 1  
   119   48  119 1  
   120   48  120 1  
   121   48  121 1  
   122   49  122 1  
   123   50  123 1  
   124   53  124 1  
   125   53  125 1  
   126   53  126 1  
   127   54  127 1  
   128   55  128 1  
   129   56  129 ar 
   130   58  130 1  
   131   58  131 1  
   132   59  132 1  
   133   59  133 1  
   134   60  134 1  
   135   60  135 1  
   136   61  136 1  
   137   63  137 1  
   138   63  138 1  
   139   64  139 1  
   140   64  140 1  
@<TRIPOS>SUBSTRUCTURE
     1 ARG         1

