### 
### Created by X-TOOL on Sun Nov 13 14:28:30 2016
### 

@<TRIPOS>MOLECULE
4z7s_ligand
   59    60     1     0     0
SMALL
GAST_HUCK


@<TRIPOS>ATOM
      1 C28        53.3540  103.3210   73.9400 C.ar      1 MOL        -0.0420
      2 C12        54.7440  113.2460   72.7570 C.2       1 MOL         0.2068
      3 C14        55.1470  112.4310   71.5570 C.3       1 MOL         0.1423
      4 C16        55.9920  114.3160   70.2360 C.2       1 MOL         0.0393
      5 C20        54.7200  110.1390   72.4020 C.2       1 MOL         0.1802
      6 C31        50.6520  103.5560   74.6050 C.ar      1 MOL        -0.0509
      7 C15        54.9590  113.2020   70.2750 C.3       1 MOL         0.0406
      8 C32        51.4040  104.7010   74.2910 C.ar      1 MOL        -0.0420
      9 C22        53.8560  108.8570   72.5010 C.3       1 MOL         0.0575
     10 C27        52.7550  104.5790   73.9560 C.ar      1 MOL         0.0498
     11 C01        53.8250  112.0640   77.1310 C.ar      1 MOL        -0.0564
     12 C02        52.8040  111.2690   77.6280 C.ar      1 MOL        -0.0682
     13 C03        53.7310  112.5860   75.8450 C.ar      1 MOL        -0.0049
     14 C04        51.6920  110.9850   76.8430 C.ar      1 MOL        -0.0685
     15 C05        54.8180  113.4430   75.2490 C.3       1 MOL         0.1278
     16 C06        51.6020  111.4960   75.5600 C.ar      1 MOL        -0.0682
     17 C07        56.0210  113.5230   76.1490 C.2       1 MOL         0.0723
     18 C08        52.6250  112.2940   75.0620 C.ar      1 MOL        -0.0564
     19 O09        56.9250  112.6590   76.0600 O.co2     1 MOL        -0.5642
     20 O10        56.1200  114.4590   76.9910 O.co2     1 MOL        -0.5642
     21 N11        55.1710  112.7730   74.0420 N.am      1 MOL        -0.2586
     22 O13        54.0700  114.2470   72.6420 O.2       1 MOL        -0.3941
     23 O17        55.6220  115.5140   70.1290 O.co2     1 MOL        -0.5688
     24 O18        57.2170  114.0370   70.3110 O.co2     1 MOL        -0.5688
     25 N19        54.3150  111.2650   71.5930 N.am      1 MOL        -0.2640
     26 O21        55.7580  110.1990   73.0240 O.2       1 MOL        -0.3969
     27 C23        54.0840  108.2880   73.9120 C.3       1 MOL         0.0471
     28 N24        53.2780  107.1140   74.1990 N.am      1 MOL        -0.2839
     29 C25        53.6080  105.8300   73.6170 C.2       1 MOL         0.2051
     30 O26        54.5550  105.7330   72.8710 O.2       1 MOL        -0.3847
     31 C29        52.6010  102.1820   74.2460 C.ar      1 MOL        -0.0509
     32 C30        51.2470  102.3040   74.5800 C.ar      1 MOL         0.0303
     33 C33        50.4410  101.0590   74.9140 C.cat     1 MOL         0.2379
     34 N34        50.8520  100.2440   75.8520 N.pl3     1 MOL        -0.2717
     35 N35        49.2420  100.7750   74.2050 N.pl3     1 MOL        -0.2717
     36 H1         54.4044  103.2246   73.6902 H         1 MOL         0.0669
     37 H2         56.2043  112.1393   71.6410 H         1 MOL         0.0819
     38 H3         49.6046  103.6519   74.8673 H         1 MOL         0.0629
     39 H4         53.9468  113.6314   70.2435 H         1 MOL         0.0478
     40 H5         55.1003  112.5327   69.4136 H         1 MOL         0.0478
     41 H6         50.9360  105.6786   74.3087 H         1 MOL         0.0669
     42 H7         54.1703  108.1267   71.7409 H         1 MOL         0.0522
     43 H8         52.7934  109.1022   72.3567 H         1 MOL         0.0522
     44 H9         54.6940  112.2783   77.7426 H         1 MOL         0.0560
     45 H10        52.8727  110.8672   78.6324 H         1 MOL         0.0600
     46 H11        50.8956  110.3634   77.2359 H         1 MOL         0.0560
     47 H12        54.4432  114.4566   75.0437 H         1 MOL         0.0887
     48 H13        50.7367  111.2746   74.9457 H         1 MOL         0.0600
     49 H14        52.5577  112.6904   74.0553 H         1 MOL         0.0560
     50 H15        55.7336  111.9478   74.0924 H         1 MOL         0.1901
     51 H16        53.4661  111.2313   71.0656 H         1 MOL         0.1884
     52 H17        53.8367  109.0685   74.6466 H         1 MOL         0.0544
     53 H18        55.1450  108.0148   74.0103 H         1 MOL         0.0544
     54 H19        52.4866  107.1935   74.8051 H         1 MOL         0.1846
     55 H20        53.0669  101.2035   74.2244 H         1 MOL         0.0629
     56 H21        50.3052   99.4008   76.0775 H         1 MOL         0.3181
     57 H22        51.7223  100.4459   76.3647 H         1 MOL         0.3181
     58 H23        48.9166  101.4149   73.4664 H         1 MOL         0.3181
     59 H24        48.6987   99.9293   74.4299 H         1 MOL         0.3181
@<TRIPOS>BOND
     1   10    1 ar 
     2    1   31 ar 
     3    3    2 1  
     4    2   21 am 
     5    2   22 2  
     6    3    7 1  
     7   25    3 1  
     8    7    4 1  
     9    4   23 ar 
    10    4   24 ar 
    11    9    5 1  
    12    5   25 am 
    13    5   26 2  
    14    8    6 ar 
    15    6   32 ar 
    16   10    8 ar 
    17   27    9 1  
    18   29   10 1  
    19   11   12 ar 
    20   13   11 ar 
    21   12   14 ar 
    22   15   13 1  
    23   13   18 ar 
    24   16   14 ar 
    25   15   17 1  
    26   21   15 1  
    27   18   16 ar 
    28   17   19 ar 
    29   17   20 ar 
    30   28   27 1  
    31   28   29 am 
    32   29   30 2  
    33   31   32 ar 
    34   32   33 1  
    35   33   34 ar 
    36   33   35 ar 
    37    1   36 1  
    38    3   37 1  
    39    6   38 1  
    40    7   39 1  
    41    7   40 1  
    42    8   41 1  
    43    9   42 1  
    44    9   43 1  
    45   11   44 1  
    46   12   45 1  
    47   14   46 1  
    48   15   47 1  
    49   16   48 1  
    50   18   49 1  
    51   21   50 1  
    52   25   51 1  
    53   27   52 1  
    54   27   53 1  
    55   28   54 1  
    56   31   55 1  
    57   34   56 1  
    58   34   57 1  
    59   35   58 1  
    60   35   59 1  
@<TRIPOS>SUBSTRUCTURE
     1 MOL         1

