### 
### Created by X-TOOL on Fri Sep 26 17:34:47 2014
### 

@<TRIPOS>MOLECULE
2w9i_ligand
   39    41     1     0     0
SMALL
GAST_HUCK


@<TRIPOS>ATOM
      1 C1          1.8580   61.6190   71.1710 C.ar      1 MBT         0.0570
      2 C2          1.1040   62.7780   71.0530 C.ar      1 MBT         0.0393
      3 S3         -0.4370   62.8490   71.7600 S.3       1 MBT        -0.0619
      4 C4         -0.7600   61.3840   72.5370 C.ar      1 MBT         0.0393
      5 C5          0.1850   60.3820   72.4970 C.ar      1 MBT         0.0570
      6 N6          1.4020   60.5230   71.8440 N.pl3     1 MBT        -0.2929
      7 C7         -1.9810   61.2030   73.2000 C.ar      1 MBT        -0.0397
      8 C8         -2.3380   60.0270   73.8700 C.ar      1 MBT         0.0216
      9 C9         -1.4000   59.0010   73.8360 C.ar      1 MBT        -0.0617
     10 C10        -0.1710   59.1850   73.1580 C.ar      1 MBT        -0.0570
     11 C11         1.5910   63.8860   70.3620 C.ar      1 MBT        -0.0397
     12 C12         2.8580   63.8920   69.7690 C.ar      1 MBT         0.0216
     13 C13         3.6120   62.7290   69.8740 C.ar      1 MBT        -0.0617
     14 C14         3.1070   61.6170   70.5610 C.ar      1 MBT        -0.0570
     15 N15        -3.5610   59.9040   74.5070 N.pl3     1 MBT        -0.3227
     16 C16        -3.9360   58.6690   75.1790 C.3       1 MBT         0.0128
     17 C17        -4.5610   60.9760   74.5490 C.3       1 MBT         0.0128
     18 N18         3.2990   65.0220   69.1150 N.pl3     1 MBT        -0.3227
     19 C19         2.4370   66.1910   69.0380 C.3       1 MBT         0.0128
     20 C20         4.5930   65.1100   68.4550 C.3       1 MBT         0.0128
     21 H1          2.0318   59.7084   71.8705 H         1 MBT         0.1966
     22 H2         -2.6911   62.0220   73.1937 H         1 MBT         0.0434
     23 H3         -1.6102   58.0589   74.3294 H         1 MBT         0.0428
     24 H4          0.5354   58.3629   73.1452 H         1 MBT         0.0469
     25 H5          0.9690   64.7702   70.2816 H         1 MBT         0.0434
     26 H6          4.5961   62.6820   69.4219 H         1 MBT         0.0428
     27 H7          3.7138   60.7206   70.6190 H         1 MBT         0.0469
     28 H8         -4.9389   58.7799   75.6171 H         1 MBT         0.0473
     29 H9         -3.2100   58.4501   75.9759 H         1 MBT         0.0473
     30 H10        -3.9427   57.8434   74.4521 H         1 MBT         0.0473
     31 H11        -4.1766   61.8571   74.0144 H         1 MBT         0.0473
     32 H12        -4.7679   61.2436   75.5957 H         1 MBT         0.0473
     33 H13        -5.4885   60.6313   74.0684 H         1 MBT         0.0473
     34 H14         2.9512   66.9898   68.4836 H         1 MBT         0.0473
     35 H15         2.2032   66.5418   70.0540 H         1 MBT         0.0473
     36 H16         1.5047   65.9255   68.5181 H         1 MBT         0.0473
     37 H17         5.1386   64.1645   68.5903 H         1 MBT         0.0473
     38 H18         5.1736   65.9344   68.8946 H         1 MBT         0.0473
     39 H19         4.4450   65.2975   67.3813 H         1 MBT         0.0473
@<TRIPOS>BOND
     1    1    2 ar 
     2    1    6 1  
     3    1   14 ar 
     4    2    3 1  
     5    2   11 ar 
     6    3    4 1  
     7    4    5 ar 
     8    4    7 ar 
     9    5    6 1  
    10    5   10 ar 
    11    7    8 ar 
    12    8    9 ar 
    13    8   15 1  
    14    9   10 ar 
    15   11   12 ar 
    16   12   13 ar 
    17   12   18 1  
    18   13   14 ar 
    19   15   16 1  
    20   15   17 1  
    21   18   19 1  
    22   18   20 1  
    23    6   21 1  
    24    7   22 1  
    25    9   23 1  
    26   10   24 1  
    27   11   25 1  
    28   13   26 1  
    29   14   27 1  
    30   16   28 1  
    31   16   29 1  
    32   16   30 1  
    33   17   31 1  
    34   17   32 1  
    35   17   33 1  
    36   19   34 1  
    37   19   35 1  
    38   19   36 1  
    39   20   37 1  
    40   20   38 1  
    41   20   39 1  
@<TRIPOS>SUBSTRUCTURE
     1 MBT         1

