### 
### Created by X-TOOL on Fri Sep 26 17:34:23 2014
### 

@<TRIPOS>MOLECULE
1qy5_ligand
   38    40     1     0     0
SMALL
GAST_HUCK


@<TRIPOS>ATOM
      1 C5'        18.3120  -14.5960   53.5470 C.2       1 NEC         0.2080
      2 O5'        17.1970  -15.1530   54.0070 O.2       1 NEC        -0.3941
      3 N5'        18.4590  -13.1900   53.5570 N.am      1 NEC        -0.2850
      4 C51        17.9140  -12.4510   52.4180 C.3       1 NEC         0.0281
      5 C52        16.6960  -11.7340   52.9010 C.3       1 NEC        -0.0449
      6 C4'        19.4450  -15.4460   53.0990 C.3       1 NEC         0.1788
      7 O4'        19.9620  -16.1300   54.1960 O.3       1 NEC        -0.3181
      8 C3'        19.1680  -16.4990   52.0630 C.3       1 NEC         0.1295
      9 O3'        19.2180  -15.9920   50.7250 O.3       1 NEC        -0.3840
     10 C2'        20.2000  -17.6100   52.4460 C.3       1 NEC         0.1408
     11 O2'        21.4730  -17.2920   51.7730 O.3       1 NEC        -0.3834
     12 C1'        20.2770  -17.5060   54.0400 C.3       1 NEC         0.2035
     13 N9         19.2790  -18.3900   54.6250 N.pl3     1 NEC        -0.1918
     14 C8         18.0330  -18.1090   55.1470 C.2       1 NEC         0.1123
     15 N7         17.4630  -19.1820   55.6220 N.2       1 NEC        -0.2958
     16 C5         18.3810  -20.2020   55.4220 C.ar      1 NEC         0.1045
     17 C6         18.3820  -21.5730   55.7340 C.ar      1 NEC         0.1298
     18 N6         17.3490  -22.2080   56.3200 N.pl3     1 NEC        -0.3152
     19 N1         19.5000  -22.2910   55.4270 N.ar      1 NEC        -0.2698
     20 C2         20.5340  -21.6780   54.8310 C.ar      1 NEC         0.0533
     21 N3         20.6450  -20.3820   54.4500 N.ar      1 NEC        -0.2714
     22 C4         19.5190  -19.7020   54.7930 C.ar      1 NEC         0.1613
     23 H1         18.9167  -12.7199   54.3116 H         1 NEC         0.1851
     24 H2         17.6460  -13.1474   51.6098 H         1 NEC         0.0517
     25 H3         18.6555  -11.7277   52.0479 H         1 NEC         0.0517
     26 H4         16.2534  -11.1633   52.0713 H         1 NEC         0.0249
     27 H5         16.9735  -11.0455   53.7127 H         1 NEC         0.0249
     28 H6         15.9640  -12.4652   53.2746 H         1 NEC         0.0249
     29 H7         20.2124  -14.7710   52.6922 H         1 NEC         0.0869
     30 H8         18.1534  -16.8983   52.2081 H         1 NEC         0.0673
     31 H9         20.0827  -15.6377   50.5539 H         1 NEC         0.2102
     32 H10        19.8574  -18.6093   52.1396 H         1 NEC         0.0678
     33 H11        21.3376  -17.2765   50.8329 H         1 NEC         0.2101
     34 H12        21.2743  -17.7478   54.4361 H         1 NEC         0.0998
     35 H13        17.5827  -17.1176   55.1607 H         1 NEC         0.1349
     36 H14        17.4121  -23.2159   56.5227 H         1 NEC         0.1820
     37 H15        16.4958  -21.6858   56.5655 H         1 NEC         0.1820
     38 H16        21.3960  -22.3028   54.6269 H         1 NEC         0.0996
@<TRIPOS>BOND
     1    1    2 2  
     2    1    3 am 
     3    1    6 1  
     4    3    4 1  
     5    4    5 1  
     6    6    7 1  
     7    6    8 1  
     8    7   12 1  
     9    8    9 1  
    10    8   10 1  
    11   10   11 1  
    12   10   12 1  
    13   12   13 1  
    14   13   14 1  
    15   13   22 1  
    16   14   15 2  
    17   15   16 1  
    18   16   17 ar 
    19   16   22 ar 
    20   17   18 1  
    21   17   19 ar 
    22   19   20 ar 
    23   20   21 ar 
    24   21   22 ar 
    25    3   23 1  
    26    4   24 1  
    27    4   25 1  
    28    5   26 1  
    29    5   27 1  
    30    5   28 1  
    31    6   29 1  
    32    8   30 1  
    33    9   31 1  
    34   10   32 1  
    35   11   33 1  
    36   12   34 1  
    37   14   35 1  
    38   18   36 1  
    39   18   37 1  
    40   20   38 1  
@<TRIPOS>SUBSTRUCTURE
     1 NEC         1

