### 
### Created by X-TOOL on Fri Sep 26 17:34:31 2014
### 

@<TRIPOS>MOLECULE
2a31_ligand
   20    19     1     0     0
SMALL
GAST_HUCK


@<TRIPOS>ATOM
      1 OA         35.7140   26.7680   11.3540 O.3       1 BO4        -0.3949
      2 CB         34.4270   26.1990   11.4080 C.3       1 BO4         0.0474
      3 CG         33.3230   27.2280   11.1990 C.3       1 BO4         0.0035
      4 CD         33.5260   28.4430   12.1270 C.3       1 BO4         0.0646
      5 NE         32.2580   28.8610   12.7360 N.pl3     1 BO4        -0.2722
      6 CZ         31.8390   28.4320   13.9250 C.cat     1 BO4         0.2882
      7 NH1        32.4110   27.4120   14.5790 N.pl3     1 BO4        -0.2849
      8 NH2        30.8350   29.0700   14.4930 N.pl3     1 BO4        -0.2849
      9 H1         36.3650   26.0894   11.4893 H         1 BO4         0.2094
     10 H2         34.2899   25.7304   12.3937 H         1 BO4         0.0558
     11 H3         34.3474   25.4324   10.6232 H         1 BO4         0.0558
     12 H4         32.3505   26.7638   11.4198 H         1 BO4         0.0321
     13 H5         33.3386   27.5666   10.1525 H         1 BO4         0.0321
     14 H6         33.9353   29.2786   11.5403 H         1 BO4         0.0689
     15 H7         34.2348   28.1722   12.9234 H         1 BO4         0.0689
     16 H8         31.6610   29.5205   12.2168 H         1 BO4         0.2642
     17 H9         32.0470   27.1201   15.4973 H         1 BO4         0.2615
     18 H10        33.2147   26.9198   14.1635 H         1 BO4         0.2615
     19 H11        30.3828   29.8566   14.0054 H         1 BO4         0.2615
     20 H12        30.5027   28.7819   15.4244 H         1 BO4         0.2615
@<TRIPOS>BOND
     1    1    2 1  
     2    2    3 1  
     3    3    4 1  
     4    4    5 1  
     5    5    6 ar 
     6    6    7 ar 
     7    6    8 ar 
     8    1    9 1  
     9    2   10 1  
    10    2   11 1  
    11    3   12 1  
    12    3   13 1  
    13    4   14 1  
    14    4   15 1  
    15    5   16 1  
    16    7   17 1  
    17    7   18 1  
    18    8   19 1  
    19    8   20 1  
@<TRIPOS>SUBSTRUCTURE
     1 BO4         1

