### 
### Created by X-TOOL on Fri Sep 26 17:34:33 2014
### 

@<TRIPOS>MOLECULE
2f7o_ligand
   25    25     1     0     0
SMALL
GAST_HUCK


@<TRIPOS>ATOM
      1 C5         31.3190   65.8770    9.4500 C.3       1 MSN         0.0192
      2 N5         31.1480   64.5080    9.9440 N.4       1 MSN         0.2235
      3 C4         32.8010   66.1880    9.5120 C.3       1 MSN         0.1267
      4 O4         33.6220   65.0880    9.9130 O.3       1 MSN        -0.3835
      5 C3         33.0740   66.7150    8.0990 C.3       1 MSN         0.1133
      6 O3         33.8360   65.8240    7.2910 O.3       1 MSN        -0.3864
      7 C2         31.7990   67.0490    7.3310 C.3       1 MSN         0.1007
      8 O2         31.7660   67.2890    5.9230 O.3       1 MSN        -0.3878
      9 C1         30.9360   65.9490    7.9790 C.3       1 MSN         0.0784
     10 S6         29.2320   66.5180    8.0170 S.3       1 MSN        -0.1524
     11 C7         28.4200   65.3730    9.1430 C.3       1 MSN        -0.0176
     12 H1         30.7289   66.5869   10.0481 H         1 MSN         0.0888
     13 H2         31.4034   64.4680   10.9183 H         1 MSN         0.1998
     14 H3         31.7381   63.8841    9.4161 H         1 MSN         0.1998
     15 H4         30.1849   64.2302    9.8375 H         1 MSN         0.1998
     16 H5         32.9731   66.9952   10.2392 H         1 MSN         0.0677
     17 H6         33.5149   64.3731    9.2966 H         1 MSN         0.2102
     18 H7         33.6533   67.6430    8.2142 H         1 MSN         0.0647
     19 H8         33.9679   66.2104    6.4332 H         1 MSN         0.2100
     20 H9         31.4406   68.0099    7.7288 H         1 MSN         0.0633
     21 H10        30.8740   67.4776    5.6559 H         1 MSN         0.2099
     22 H11        31.0479   64.9845    7.4621 H         1 MSN         0.0495
     23 H12        27.3571   65.6409    9.2348 H         1 MSN         0.0341
     24 H13        28.8990   65.4292   10.1316 H         1 MSN         0.0341
     25 H14        28.5075   64.3490    8.7509 H         1 MSN         0.0341
@<TRIPOS>BOND
     1    1    2 1  
     2    1    3 1  
     3    1    9 1  
     4    3    4 1  
     5    3    5 1  
     6    5    6 1  
     7    5    7 1  
     8    7    8 1  
     9    7    9 1  
    10    9   10 1  
    11   10   11 1  
    12    1   12 1  
    13    2   13 1  
    14    2   14 1  
    15    2   15 1  
    16    3   16 1  
    17    4   17 1  
    18    5   18 1  
    19    6   19 1  
    20    7   20 1  
    21    8   21 1  
    22    9   22 1  
    23   11   23 1  
    24   11   24 1  
    25   11   25 1  
@<TRIPOS>SUBSTRUCTURE
     1 MSN         1

