### 
### Created by X-TOOL on Fri Sep 26 17:34:34 2014
### 

@<TRIPOS>MOLECULE
2frd_ligand
   70    74     1     0     0
SMALL
GAST_HUCK


@<TRIPOS>ATOM
      1 O3         -7.6530    6.4030   25.2500 O.3       1 NAD        -0.1319
      2 PA         -7.7190    6.4160   26.8630 P.3       1 NAD         0.2972
      3 O1A        -6.9600    5.2840   27.4450 O.co2     1 NAD        -0.6127
      4 O2A        -7.2640    7.7170   27.4120 O.co2     1 NAD        -0.6127
      5 O5B        -9.2940    6.2150   27.1210 O.3       1 NAD        -0.2476
      6 C5B        -9.9500    5.0970   26.5680 C.3       1 NAD         0.1128
      7 C4B       -11.1040    5.4780   25.6390 C.3       1 NAD         0.1189
      8 O4B       -12.2340    5.7990   26.4200 O.3       1 NAD        -0.3364
      9 C3B       -10.8840    6.6600   24.7010 C.3       1 NAD         0.1149
     10 O3B       -10.8950    6.2050   23.3750 O.3       1 NAD        -0.3864
     11 C2B       -12.0490    7.5960   24.9260 C.3       1 NAD         0.1385
     12 O2B       -12.6700    7.9400   23.7120 O.3       1 NAD        -0.3836
     13 C1B       -13.0000    6.8190   25.8200 C.3       1 NAD         0.2010
     14 N9A       -13.6390    7.6290   26.8800 N.pl3     1 NAD        -0.1919
     15 C8A       -13.0350    8.4320   27.8180 C.2       1 NAD         0.1123
     16 N7A       -13.9940    8.9760   28.6070 N.2       1 NAD        -0.2958
     17 C5A       -15.2040    8.5200   28.1990 C.ar      1 NAD         0.1045
     18 C6A       -16.5120    8.7370   28.6450 C.ar      1 NAD         0.1298
     19 N6A       -16.7400    9.4820   29.7220 N.pl3     1 NAD        -0.3152
     20 N1A       -17.5690    8.1090   28.0040 N.ar      1 NAD        -0.2698
     21 C2A       -17.3260    7.2710   26.9300 C.ar      1 NAD         0.0533
     22 N3A       -16.0310    7.0610   26.4990 N.ar      1 NAD        -0.2714
     23 C4A       -14.9890    7.6700   27.1190 C.ar      1 NAD         0.1613
     24 PN         -6.6880    5.4570   24.3710 P.3       1 NAD         0.2972
     25 O1N        -7.3310    4.1470   24.1520 O.co2     1 NAD        -0.6127
     26 O2N        -5.3160    5.5110   24.9200 O.co2     1 NAD        -0.6127
     27 O5D        -6.7100    6.2550   22.9780 O.3       1 NAD        -0.2476
     28 C5D        -7.9180    6.5970   22.3400 C.3       1 NAD         0.1127
     29 C4D        -7.6220    6.9500   20.8890 C.3       1 NAD         0.1175
     30 O4D        -6.4040    7.6710   20.8190 O.3       1 NAD        -0.3489
     31 C3D        -7.4740    5.7110   20.0120 C.3       1 NAD         0.1134
     32 O3D        -8.5890    5.5400   19.1630 O.3       1 NAD        -0.3864
     33 C2D        -6.2030    5.9340   19.2140 C.3       1 NAD         0.1245
     34 O2D        -6.4690    6.0220   17.8330 O.3       1 NAD        -0.3851
     35 C1D        -5.6130    7.2440   19.7250 C.3       1 NAD         0.1576
     36 N1N        -4.1980    7.0350   20.1060 N.ar      1 NAD        -0.2936
     37 C2N        -3.2100    7.6440   19.3740 C.ar      1 NAD         0.0671
     38 C3N        -1.8690    7.4550   19.7060 C.ar      1 NAD         0.1587
     39 C7N        -0.8020    8.0780   18.8440 C.2       1 NAD         0.3690
     40 O7N        -1.0960    8.4000   17.5010 O.2       1 NAD        -0.2307
     41 N7N         0.4060    8.3230   19.3440 N.am      1 NAD        -0.2274
     42 C4N        -1.5460    6.6350   20.7880 C.ar      1 NAD         0.0203
     43 C5N        -2.5530    6.0190   21.5210 C.ar      1 NAD         0.0100
     44 C6N        -3.8810    6.2280   21.1690 C.ar      1 NAD         0.0432
     45 H1        -10.3494    4.4837   27.3892 H         1 NAD         0.0648
     46 H2         -9.2179    4.5097   25.9943 H         1 NAD         0.0648
     47 H3        -11.3268    4.5968   25.0195 H         1 NAD         0.0651
     48 H4         -9.9309    7.1631   24.9214 H         1 NAD         0.0648
     49 H5        -10.7581    6.9395   22.7882 H         1 NAD         0.2100
     50 H6        -11.7109    8.5132   25.4304 H         1 NAD         0.0676
     51 H7        -12.9915    7.1530   23.2879 H         1 NAD         0.2101
     52 H8        -13.7919    6.3769   25.1976 H         1 NAD         0.0996
     53 H9        -11.9636    8.6029   27.9118 H         1 NAD         0.1349
     54 H10       -17.7054    9.6380   30.0453 H         1 NAD         0.1820
     55 H11       -15.9513    9.9033   30.2332 H         1 NAD         0.1820
     56 H12       -18.1514    6.7799   26.4275 H         1 NAD         0.0996
     57 H13        -8.3717    7.4620   22.8460 H         1 NAD         0.0648
     58 H14        -8.6115    5.7440   22.3791 H         1 NAD         0.0648
     59 H15        -8.4433    7.5704   20.5009 H         1 NAD         0.0650
     60 H16        -7.3694    4.8158   20.6427 H         1 NAD         0.0647
     61 H17        -8.6753    6.2993   18.5986 H         1 NAD         0.2100
     62 H18        -5.4995    5.1072   19.3916 H         1 NAD         0.0660
     63 H19        -6.8725    5.2144   17.5373 H         1 NAD         0.2101
     64 H20        -5.6563    8.0039   18.9308 H         1 NAD         0.0811
     65 H21        -3.4734    8.2754   18.5332 H         1 NAD         0.1162
     66 H22         1.1111    8.7367   18.7680 H         1 NAD         0.2875
     67 H23         0.6091    8.0935   20.2959 H         1 NAD         0.2875
     68 H24        -0.5077    6.4783   21.0571 H         1 NAD         0.0911
     69 H25        -2.3046    5.3803   22.3609 H         1 NAD         0.0924
     70 H26        -4.6708    5.7506   21.7376 H         1 NAD         0.1187
@<TRIPOS>BOND
     1    1    2 1  
     2    1   24 1  
     3    2    3 ar 
     4    2    4 ar 
     5    2    5 1  
     6    5    6 1  
     7    6    7 1  
     8    7    8 1  
     9    7    9 1  
    10    8   13 1  
    11    9   10 1  
    12    9   11 1  
    13   11   12 1  
    14   11   13 1  
    15   13   14 1  
    16   14   15 1  
    17   14   23 1  
    18   15   16 2  
    19   16   17 1  
    20   17   18 ar 
    21   17   23 ar 
    22   18   19 1  
    23   18   20 ar 
    24   20   21 ar 
    25   21   22 ar 
    26   22   23 ar 
    27   24   25 ar 
    28   24   26 ar 
    29   24   27 1  
    30   27   28 1  
    31   28   29 1  
    32   29   30 1  
    33   29   31 1  
    34   30   35 1  
    35   31   32 1  
    36   31   33 1  
    37   33   34 1  
    38   33   35 1  
    39   35   36 1  
    40   36   37 ar 
    41   36   44 ar 
    42   37   38 ar 
    43   38   39 1  
    44   38   42 ar 
    45   39   40 2  
    46   39   41 am 
    47   42   43 ar 
    48   43   44 ar 
    49    6   45 1  
    50    6   46 1  
    51    7   47 1  
    52    9   48 1  
    53   10   49 1  
    54   11   50 1  
    55   12   51 1  
    56   13   52 1  
    57   15   53 1  
    58   19   54 1  
    59   19   55 1  
    60   21   56 1  
    61   28   57 1  
    62   28   58 1  
    63   29   59 1  
    64   31   60 1  
    65   32   61 1  
    66   33   62 1  
    67   34   63 1  
    68   35   64 1  
    69   37   65 1  
    70   41   66 1  
    71   41   67 1  
    72   42   68 1  
    73   43   69 1  
    74   44   70 1  
@<TRIPOS>SUBSTRUCTURE
     1 NAD         1

