### 
### Created by X-TOOL on Fri Sep 26 17:34:41 2014
### 

@<TRIPOS>MOLECULE
3e9b_ligand
   30    28     1     0     0
SMALL
GAST_HUCK


@<TRIPOS>ATOM
      1 OXT        44.6620  -21.3000    6.8660 O.co2     1 S2C        -0.5642
      2 N          44.7610  -20.0780    3.3850 N.4       1 S2C         0.2333
      3 CA         44.4370  -19.9960    4.8330 C.3       1 S2C         0.0375
      4 C          44.9070  -21.3080    5.5550 C.2       1 S2C         0.0852
      5 O          45.4760  -22.3020    4.9990 O.co2     1 S2C        -0.5642
      6 CB         42.9230  -19.7160    4.8050 C.3       1 S2C         0.0486
      7 SG         42.0060  -20.4190    6.1730 S.3       1 S2C        -0.1536
      8 CD         40.3840  -19.8300    5.6600 C.3       1 S2C        -0.0089
      9 CE         39.4900  -21.0280    5.3680 C.3       1 S2C        -0.0562
     10 B          38.0410  -20.7100    4.9010 B         1 S2C         3.0000
     11 O1         37.9900  -20.1840    3.5580 O.3       1 S2C        -0.4105
     12 O2         37.2580  -21.9110    4.9200 O.3       1 S2C        -0.4105
     13 O3         37.3570  -19.7500    5.7760 O.3       1 S2C        -0.4105
     14 H1         44.4579  -19.2341    2.9246 H         1 S2C         0.2010
     15 H2         44.2883  -20.8704    2.9792 H         1 S2C         0.2010
     16 H3         45.7566  -20.1850    3.2690 H         1 S2C         0.2010
     17 H4         44.9555  -19.1476    5.3035 H         1 S2C         0.1033
     18 H5         42.5153  -20.1297    3.8708 H         1 S2C         0.0451
     19 H6         42.7759  -18.6260    4.8183 H         1 S2C         0.0451
     20 H7         40.4847  -19.2156    4.7532 H         1 S2C         0.0374
     21 H8         39.9396  -19.2260    6.4648 H         1 S2C         0.0374
     22 H9         39.4258  -21.1811    4.2806 H         1 S2C         0.0238
     23 H10        38.4840  -20.8419    5.7722 H         1 S2C         0.0238
     24 H11        39.9146  -21.9261    5.8403 H         1 S2C         0.0238
     25 H12        37.0460  -20.1309    3.6507 H         1 S2C         0.2052
     26 H13        38.2787  -21.0665    3.7588 H         1 S2C         0.2052
     27 H14        36.9086  -21.0680    4.6559 H         1 S2C         0.2052
     28 H15        36.6189  -22.3646    5.4569 H         1 S2C         0.2052
     29 H16        38.2976  -19.8829    5.7643 H         1 S2C         0.2052
     30 H17        37.0467  -19.7614    6.6738 H         1 S2C         0.2052
@<TRIPOS>BOND
     1    4    1 ar 
     2    3    2 1  
     3    3    4 1  
     4    3    6 1  
     5    4    5 ar 
     6    6    7 1  
     7    7    8 1  
     8    8    9 1  
     9    9   10 1  
    10   10   11 1  
    11   10   12 1  
    12    2   14 1  
    13    2   15 1  
    14    2   16 1  
    15    3   17 1  
    16    6   18 1  
    17    6   19 1  
    18    8   20 1  
    19    8   21 1  
    20    9   22 1  
    21    9   23 1  
    22    9   24 1  
    23   11   25 1  
    24   11   26 1  
    25   12   27 1  
    26   12   28 1  
    27   13   29 1  
    28   13   30 1  
@<TRIPOS>SUBSTRUCTURE
     1 S2C         1

