### 
### Created by X-TOOL on Fri Sep 26 17:34:46 2014
### 

@<TRIPOS>MOLECULE
3mpf_ligand
   79    84     1     0     0
SMALL
GAST_HUCK


@<TRIPOS>ATOM
      1 C1         13.6350  -19.0700  -39.6250 C.ar      1 N2D         0.0113
      2 C2         12.8250  -18.3130  -40.4720 C.ar      1 N2D        -0.0393
      3 CL2        15.3390  -19.3590  -40.0780 Cl        1 N2D        -0.0883
      4 C3         11.4970  -18.0840  -40.1280 C.ar      1 N2D         0.0953
      5 CL3        16.4150   -6.8980  -42.5170 Cl        1 N2D        -0.0787
      6 C4         10.9860  -18.6580  -38.8520 C.ar      1 N2D         0.0945
      7 C5         11.8340  -19.4060  -38.0420 C.ar      1 N2D        -0.0523
      8 C6         13.1540  -19.6110  -38.4310 C.ar      1 N2D        -0.0762
      9 N13         9.7040  -18.3010  -38.7490 N.am      1 N2D        -0.2086
     10 C14         9.4560  -17.5830  -39.8420 C.2       1 N2D         0.3124
     11 N15        10.4710  -17.4250  -40.6890 N.am      1 N2D        -0.2030
     12 C22         8.7730  -18.6400  -37.6440 C.3       1 N2D         0.0442
     13 O24         8.3000  -17.0720  -40.0820 O.2       1 N2D        -0.3949
     14 C26        10.4170  -16.6590  -41.9630 C.3       1 N2D         0.0624
     15 C28        11.4630  -15.5610  -42.0010 C.3       1 N2D        -0.0434
     16 C29        11.1650  -14.6280  -43.1640 C.3       1 N2D        -0.1105
     17 N30        10.7870  -15.3710  -44.3740 N.4       1 N2D         0.4031
     18 C31        10.3980  -16.7860  -44.4590 C.3       1 N2D        -0.1105
     19 C32        10.6650  -17.5420  -43.1630 C.3       1 N2D        -0.0434
     20 C39        10.7560  -14.6170  -45.6180 C.3       1 N2D        -0.1102
     21 C41        12.1630  -14.6580  -46.2020 C.3       1 N2D        -0.0398
     22 C43        12.3340  -13.5980  -47.2870 C.3       1 N2D         0.0842
     23 N45        13.6980  -13.0740  -47.2350 N.am      1 N2D        -0.1367
     24 N47        13.9850  -12.0170  -46.3580 N.2       1 N2D        -0.1427
     25 C48        15.2350  -11.5170  -46.2790 C.2       1 N2D         0.0877
     26 C49        16.2580  -12.0390  -47.0760 C.2       1 N2D        -0.0283
     27 C50        16.0050  -13.0880  -47.9520 C.2       1 N2D         0.0129
     28 C51        14.7260  -13.6180  -48.0390 C.2       1 N2D         0.2289
     29 C58        15.5250  -10.3930  -45.3510 C.ar      1 N2D        -0.0119
     30 C60        14.5890   -9.3690  -45.1780 C.ar      1 N2D        -0.0623
     31 C61        14.8500   -8.3020  -44.3190 C.ar      1 N2D        -0.0563
     32 C62        16.0530   -8.2540  -43.6220 C.ar      1 N2D         0.0409
     33 C63        17.0460   -9.3380  -43.8080 C.ar      1 N2D        -0.0092
     34 C64        16.7410  -10.3770  -44.6710 C.ar      1 N2D        -0.0525
     35 O71        14.5050  -14.5610  -48.8300 O.2       1 N2D        -0.4104
     36 C75        18.3690   -9.3430  -43.0820 C.3       1 N2D         0.0640
     37 N77        18.3230  -10.3420  -42.0280 N.am      1 N2D        -0.2748
     38 C79        19.2390  -11.3000  -41.8870 C.2       1 N2D         0.2068
     39 C81        19.1340  -12.2460  -40.7240 C.ar      1 N2D         0.0500
     40 C83        20.2680  -12.5430  -39.9680 C.ar      1 N2D        -0.0419
     41 C84        20.1820  -13.4170  -38.8870 C.ar      1 N2D        -0.0562
     42 C85        18.9600  -13.9980  -38.5580 C.ar      1 N2D        -0.0575
     43 C86        17.8270  -13.7030  -39.3130 C.ar      1 N2D        -0.0562
     44 C87        17.9120  -12.8270  -40.3920 C.ar      1 N2D        -0.0419
     45 O94        20.1720  -11.4240  -42.6660 O.2       1 N2D        -0.3845
     46 H          13.2303  -17.9037  -41.3974 H         1 N2D         0.0465
     47 H          11.4663  -19.8294  -37.1073 H         1 N2D         0.0461
     48 H          13.8185  -20.1991  -37.7981 H         1 N2D         0.0460
     49 H           8.4132  -17.7220  -37.1793 H         1 N2D         0.0549
     50 H           7.9284  -19.2026  -38.0419 H         1 N2D         0.0549
     51 H           9.2961  -19.2435  -36.9022 H         1 N2D         0.0549
     52 H           9.4136  -16.2354  -42.0046 H         1 N2D         0.0620
     53 H          12.4518  -16.0015  -42.1291 H         1 N2D         0.0273
     54 H          11.4395  -15.0004  -41.0665 H         1 N2D         0.0273
     55 H          12.0647  -14.0523  -43.3816 H         1 N2D         0.0018
     56 H          10.3321  -13.9836  -42.8825 H         1 N2D         0.0018
     57 H          10.9890  -17.2510  -45.2481 H         1 N2D         0.0018
     58 H           9.3276  -16.8296  -44.6599 H         1 N2D         0.0018
     59 H           9.9933  -18.3990  -43.1124 H         1 N2D         0.0273
     60 H          11.7066  -17.8630  -43.1527 H         1 N2D         0.0273
     61 H          10.4445  -13.5883  -45.4367 H         1 N2D         0.0018
     62 H          10.0379  -15.0515  -46.3135 H         1 N2D         0.0018
     63 H          12.3309  -15.6407  -46.6427 H         1 N2D         0.0275
     64 H          12.8793  -14.4615  -45.4043 H         1 N2D         0.0275
     65 H          11.6239  -12.7876  -47.1224 H         1 N2D         0.0662
     66 H          12.1494  -14.0421  -48.2652 H         1 N2D         0.0662
     67 H          17.2621  -11.6200  -47.0099 H         1 N2D         0.0731
     68 H          16.8081  -13.4925  -48.5680 H         1 N2D         0.0609
     69 H          13.6444   -9.4051  -45.7208 H         1 N2D         0.0547
     70 H          14.1137   -7.5080  -44.1940 H         1 N2D         0.0600
     71 H          17.4558  -11.1865  -44.8191 H         1 N2D         0.0538
     72 H          18.5563   -8.3599  -42.6502 H         1 N2D         0.0684
     73 H          19.1718   -9.5803  -43.7801 H         1 N2D         0.0684
     74 H          17.5508  -10.3085  -41.3624 H         1 N2D         0.1872
     75 H          21.2253  -12.0892  -40.2243 H         1 N2D         0.0669
     76 H          21.0707  -13.6461  -38.2989 H         1 N2D         0.0629
     77 H          18.8901  -14.6818  -37.7120 H         1 N2D         0.0653
     78 H          16.8706  -14.1595  -39.0582 H         1 N2D         0.0629
     79 H          17.0220  -12.5957  -40.9772 H         1 N2D         0.0669
@<TRIPOS>BOND
     1    2    1 ar 
     2    1    3 1  
     3    1    8 ar 
     4    4    2 ar 
     5    4    6 ar 
     6   11    4 1  
     7   32    5 1  
     8    6    7 ar 
     9    9    6 1  
    10    7    8 ar 
    11   10    9 am 
    12    9   12 1  
    13   11   10 am 
    14   10   13 2  
    15   14   11 1  
    16   15   14 1  
    17   19   14 1  
    18   16   15 1  
    19   17   16 1  
    20   17   18 1  
    21   20   17 1  
    22   18   19 1  
    23   21   20 1  
    24   22   21 1  
    25   23   22 1  
    26   24   23 1  
    27   23   28 am 
    28   25   24 2  
    29   25   26 1  
    30   29   25 1  
    31   26   27 2  
    32   27   28 1  
    33   28   35 2  
    34   30   29 ar 
    35   29   34 ar 
    36   31   30 ar 
    37   31   32 ar 
    38   32   33 ar 
    39   33   34 ar 
    40   33   36 1  
    41   36   37 1  
    42   37   38 am 
    43   38   39 1  
    44   38   45 2  
    45   39   40 ar 
    46   39   44 ar 
    47   40   41 ar 
    48   41   42 ar 
    49   42   43 ar 
    50   43   44 ar 
    51    2   46 1  
    52    7   47 1  
    53    8   48 1  
    54   12   49 1  
    55   12   50 1  
    56   12   51 1  
    57   14   52 1  
    58   15   53 1  
    59   15   54 1  
    60   16   55 1  
    61   16   56 1  
    62   18   57 1  
    63   18   58 1  
    64   19   59 1  
    65   19   60 1  
    66   20   61 1  
    67   20   62 1  
    68   21   63 1  
    69   21   64 1  
    70   22   65 1  
    71   22   66 1  
    72   26   67 1  
    73   27   68 1  
    74   30   69 1  
    75   31   70 1  
    76   34   71 1  
    77   36   72 1  
    78   36   73 1  
    79   37   74 1  
    80   40   75 1  
    81   41   76 1  
    82   42   77 1  
    83   43   78 1  
    84   44   79 1  
@<TRIPOS>SUBSTRUCTURE
     1 N2D         1

