### 
### Created by X-TOOL on Fri Sep 26 17:35:00 2014
### 

@<TRIPOS>MOLECULE
4bxk_ligand
   62    63     1     0     0
SMALL
GAST_HUCK


@<TRIPOS>ATOM
      1 NAS        -5.7470  -22.3020  -21.6340 N.pl3     1 1IU        -0.1514
      2 NAR        -6.2880  -23.0360  -20.8130 N.2       1 1IU        -0.0730
      3 NAW        -6.0470  -22.6280  -19.6190 N.2       1 1IU        -0.1532
      4 NAT        -5.3490  -21.6280  -19.6290 N.2       1 1IU        -0.2222
      5 CBB        -5.1200  -21.3800  -20.9120 C.2       1 1IU         0.1704
      6 CAP        -4.3070  -20.1990  -21.4280 C.3       1 1IU         0.0946
      7 CBE        -4.6100  -19.9360  -22.8930 C.3       1 1IU         0.0824
      8 NAD        -6.0170  -19.6470  -23.1620 N.4       1 1IU         0.2400
      9 CAZ        -3.7800  -18.7830  -23.4910 C.2       1 1IU         0.2289
     10 OAG        -3.7960  -18.6910  -24.7090 O.2       1 1IU        -0.3906
     11 NAV        -3.0820  -17.9400  -22.6940 N.am      1 1IU        -0.2616
     12 CBF        -2.1980  -16.9250  -23.2940 C.3       1 1IU         0.1159
     13 CAO        -2.4580  -15.5230  -22.7810 C.3       1 1IU         0.0205
     14 CBA        -3.7600  -15.1210  -23.1820 C.ar      1 1IU        -0.0393
     15 CAM        -4.8080  -15.0440  -22.2630 C.ar      1 1IU        -0.0602
     16 CAK        -6.0820  -14.6380  -22.6730 C.ar      1 1IU        -0.0686
     17 CAJ        -6.3370  -14.2920  -23.9980 C.ar      1 1IU        -0.0687
     18 CAL        -5.2880  -14.3610  -24.9090 C.ar      1 1IU        -0.0686
     19 CAN        -4.0170  -14.7640  -24.5040 C.ar      1 1IU        -0.0602
     20 PBG        -0.4560  -17.4960  -22.8680 P.3       1 1IU         0.0153
     21 OAI        -0.3010  -18.9090  -23.5510 O.co2     1 1IU        -0.6174
     22 OAH        -0.2750  -17.6430  -21.4020 O.co2     1 1IU        -0.6174
     23 CAQ         0.5950  -16.3890  -23.7480 C.3       1 1IU         0.0350
     24 CBC         1.9390  -16.2860  -22.9940 C.3       1 1IU         0.0618
     25 CAA         3.0830  -15.9700  -23.9990 C.3       1 1IU        -0.0438
     26 CAY         1.9540  -15.1540  -21.9380 C.2       1 1IU         0.1825
     27 OAF         1.1420  -14.2210  -21.9620 O.2       1 1IU        -0.3966
     28 N           2.9830  -15.2510  -21.0800 N.am      1 1IU        -0.2656
     29 CA          3.2310  -14.2910  -19.9900 C.3       1 1IU         0.1278
     30 CB          4.3230  -14.8320  -19.0500 C.3       1 1IU        -0.0244
     31 C           3.6540  -12.9080  -20.5440 C.2       1 1IU         0.1989
     32 O           3.3540  -11.8860  -19.9240 O.2       1 1IU        -0.3947
     33 NAC         4.3120  -12.8870  -21.7100 N.am      1 1IU        -0.2990
     34 H1         -5.7733  -22.3832  -22.6605 H         1 1IU         0.2709
     35 H2         -3.2357  -20.4217  -21.3155 H         1 1IU         0.0611
     36 H3         -4.5590  -19.3035  -20.8410 H         1 1IU         0.0611
     37 H4         -4.3479  -20.8556  -23.4368 H         1 1IU         0.1131
     38 H5         -6.1438  -19.4837  -24.1486 H         1 1IU         0.2017
     39 H6         -6.2959  -18.8266  -22.6471 H         1 1IU         0.2017
     40 H7         -6.5818  -20.4314  -22.8760 H         1 1IU         0.2017
     41 H8         -3.1662  -18.0060  -21.6997 H         1 1IU         0.1873
     42 H9         -2.3334  -16.9211  -24.3856 H         1 1IU         0.0788
     43 H10        -1.7124  -14.8318  -23.2009 H         1 1IU         0.0465
     44 H11        -2.3901  -15.5129  -21.6832 H         1 1IU         0.0465
     45 H12        -4.6331  -15.3007  -21.2244 H         1 1IU         0.0557
     46 H13        -6.8854  -14.5917  -21.9467 H         1 1IU         0.0599
     47 H14        -7.3261  -13.9775  -24.3107 H         1 1IU         0.0559
     48 H15        -5.4613  -14.0982  -25.9463 H         1 1IU         0.0599
     49 H16        -3.2136  -14.8004  -25.2308 H         1 1IU         0.0557
     50 H17         0.1243  -15.3964  -23.8046 H         1 1IU         0.0493
     51 H18         0.7683  -16.7712  -24.7648 H         1 1IU         0.0493
     52 H19         2.1351  -17.2469  -22.4959 H         1 1IU         0.0551
     53 H20         4.0375  -15.8977  -23.4571 H         1 1IU         0.0257
     54 H21         2.8746  -15.0150  -24.5034 H         1 1IU         0.0257
     55 H22         3.1462  -16.7738  -24.7473 H         1 1IU         0.0257
     56 H23         3.6161  -16.0176  -21.1870 H         1 1IU         0.1883
     57 H24         2.3004  -14.1673  -19.4166 H         1 1IU         0.0797
     58 H25         4.5009  -14.1090  -18.2403 H         1 1IU         0.0277
     59 H26         5.2532  -14.9834  -19.6173 H         1 1IU         0.0277
     60 H27         3.9954  -15.7902  -18.6205 H         1 1IU         0.0277
     61 H28         4.6038  -12.0154  -22.1038 H         1 1IU         0.1815
     62 H29         4.5117  -13.7430  -22.1869 H         1 1IU         0.1815
@<TRIPOS>BOND
     1    1    2 1  
     2    1    5 1  
     3    2    3 2  
     4    3    4 1  
     5    4    5 2  
     6    5    6 1  
     7    6    7 1  
     8    7    8 1  
     9    7    9 1  
    10    9   10 2  
    11    9   11 am 
    12   11   12 1  
    13   12   13 1  
    14   12   20 1  
    15   13   14 1  
    16   14   15 ar 
    17   14   19 ar 
    18   15   16 ar 
    19   16   17 ar 
    20   17   18 ar 
    21   18   19 ar 
    22   20   21 ar 
    23   20   22 ar 
    24   20   23 1  
    25   23   24 1  
    26   24   25 1  
    27   24   26 1  
    28   26   27 2  
    29   26   28 am 
    30   28   29 1  
    31   29   30 1  
    32   29   31 1  
    33   31   32 2  
    34   31   33 am 
    35    1   34 1  
    36    6   35 1  
    37    6   36 1  
    38    7   37 1  
    39    8   38 1  
    40    8   39 1  
    41    8   40 1  
    42   11   41 1  
    43   12   42 1  
    44   13   43 1  
    45   13   44 1  
    46   15   45 1  
    47   16   46 1  
    48   17   47 1  
    49   18   48 1  
    50   19   49 1  
    51   23   50 1  
    52   23   51 1  
    53   24   52 1  
    54   25   53 1  
    55   25   54 1  
    56   25   55 1  
    57   28   56 1  
    58   29   57 1  
    59   30   58 1  
    60   30   59 1  
    61   30   60 1  
    62   33   61 1  
    63   33   62 1  
@<TRIPOS>SUBSTRUCTURE
     1 1IU         1

