### 
### Created by X-TOOL on Fri Sep 26 17:34:53 2014
### 

@<TRIPOS>MOLECULE
4dfw_ligand
  110   112     1     0     0
SMALL
GAST_HUCK


@<TRIPOS>ATOM
      1 C         -23.4620   -5.3990   25.4210 C.2       1 ACE         0.1777
      2 O         -23.3230   -4.2810   24.9950 O.2       1 ACE        -0.3970
      3 CH3       -24.5710   -5.7650   26.3780 C.3       1 ACE         0.0260
      4 N         -22.4030   -6.2410   25.2890 N.am      1 ACE        -0.2494
      5 CA        -21.2690   -5.9470   24.4180 C.3       1 ACE         0.1361
      6 C         -21.8260   -5.6390   23.0500 C.2       1 ACE         0.2042
      7 O         -22.7940   -6.2130   22.5750 O.2       1 ACE        -0.3944
      8 CD        -22.2830   -7.5840   25.8580 C.3       1 ACE         0.0631
      9 CG        -21.4070   -8.2890   24.8450 C.3       1 ACE         0.0833
     10 CB        -20.3840   -7.2050   24.4260 C.3       1 ACE         0.0160
     11 O26       -20.8450   -9.4260   25.4530 O.3       1 ACE        -0.3743
     12 C27       -19.9390  -10.1860   24.6780 C.3       1 ACE         0.0483
     13 C28       -19.5470  -11.4510   25.4240 C.3       1 ACE        -0.0277
     14 C29       -18.4840  -12.2080   24.5980 C.3       1 ACE        -0.0412
     15 C30       -18.2240  -13.5900   25.1880 C.3       1 ACE        -0.0191
     16 C31       -17.4250  -13.4530   26.4280 C.ar      1 ACE        -0.0430
     17 C32       -18.0220  -13.6300   27.6810 C.ar      1 ACE        -0.0603
     18 C33       -17.2210  -13.4580   28.8270 C.ar      1 ACE        -0.0686
     19 C34       -15.8770  -13.1490   28.6810 C.ar      1 ACE        -0.0687
     20 C35       -15.3170  -12.9890   27.4190 C.ar      1 ACE        -0.0686
     21 C36       -16.0750  -13.1460   26.2870 C.ar      1 ACE        -0.0603
     22 N         -21.1600   -4.7580   22.2680 N.am      1 ACE        -0.2637
     23 CA        -21.6390   -4.5200   20.9300 C.3       1 ACE         0.1312
     24 C         -21.0040   -5.5590   20.0350 C.2       1 ACE         0.2040
     25 O         -20.0330   -6.2150   20.4070 O.2       1 ACE        -0.3944
     26 CB        -21.1020   -3.1550   20.5030 C.3       1 ACE        -0.0101
     27 CG        -21.5780   -2.0380   21.4220 C.3       1 ACE        -0.0425
     28 CD1       -20.7880   -0.7770   21.1280 C.3       1 ACE        -0.0625
     29 CD2       -23.0530   -1.7620   21.1680 C.3       1 ACE        -0.0625
     30 N         -21.6220   -5.8380   18.8660 N.am      1 ACE        -0.2625
     31 CA        -21.1210   -6.8970   18.0190 C.3       1 ACE         0.1369
     32 C         -21.6340   -6.7170   16.6070 C.2       1 ACE         0.2054
     33 O         -22.4670   -5.8740   16.2860 O.2       1 ACE        -0.3942
     34 CB        -21.5290   -8.2990   18.5580 C.3       1 ACE         0.0145
     35 CG        -23.0350   -8.4020   18.7210 C.2       1 ACE        -0.0027
     36 ND1       -23.8980   -8.4420   17.6600 N.2       1 ACE        -0.3252
     37 CD2       -23.7270   -8.4680   19.9060 C.2       1 ACE         0.0291
     38 CE1       -25.1180   -8.5440   18.1650 C.2       1 ACE         0.0907
     39 NE2       -25.0490   -8.5660   19.5130 N.pl3     1 ACE        -0.2752
     40 N         -20.9980   -7.4670   15.6960 N.am      1 ACE        -0.2615
     41 CA        -21.3830   -7.5020   14.2990 C.3       1 ACE         0.1539
     42 C         -22.7570   -8.1220   14.0700 C.2       1 ACE         0.2063
     43 O         -23.4900   -8.5030   14.9660 O.2       1 ACE        -0.3943
     44 CB        -20.3070   -8.2410   13.5160 C.3       1 ACE         0.0843
     45 OG        -20.1640   -9.5790   13.9510 O.3       1 ACE        -0.3903
     46 N         -23.1960   -8.1470   12.8180 N.am      1 ACE        -0.2610
     47 CA        -24.5480   -8.5600   12.5610 C.3       1 ACE         0.1608
     48 CB        -24.7400   -8.3550   11.0460 C.3       1 ACE         0.1262
     49 CG2       -26.1840   -8.7300   10.6620 C.3       1 ACE        -0.0298
     50 OG1       -24.5660   -7.0190   10.7410 O.3       1 ACE        -0.2685
     51 P         -23.2990   -6.5870    9.8260 P.3       1 ACE         0.2014
     52 O1P       -23.4450   -7.3050    8.4190 O.co2     1 ACE        -0.5537
     53 O2P       -23.4430   -5.1090    9.7580 O.co2     1 ACE        -0.5537
     54 O3P       -21.9770   -7.0160   10.5470 O.co2     1 ACE        -0.5537
     55 C         -24.7670  -10.0140   12.8810 C.2       1 ACE         0.2021
     56 O         -23.9830  -10.9150   12.5870 O.2       1 ACE        -0.3946
     57 N         -25.9930  -10.3580   13.3810 N.am      1 ACE        -0.2989
     58 H1        -24.5008   -6.8337   26.6291 H         1 ACE         0.0467
     59 H2        -25.5440   -5.5623   25.9066 H         1 ACE         0.0467
     60 H3        -24.4762   -5.1658   27.2956 H         1 ACE         0.0467
     61 H4        -20.6978   -5.0838   24.7902 H         1 ACE         0.0803
     62 H5        -23.2661   -8.0704   25.9409 H         1 ACE         0.0550
     63 H6        -21.8034   -7.5556   26.8475 H         1 ACE         0.0550
     64 H7        -21.9921   -8.6069   23.9694 H         1 ACE         0.0618
     65 H8        -19.5665   -7.1182   25.1568 H         1 ACE         0.0338
     66 H9        -19.9651   -7.4096   23.4297 H         1 ACE         0.0338
     67 H10       -19.0382   -9.5867   24.4796 H         1 ACE         0.0560
     68 H11       -20.4153  -10.4587   23.7247 H         1 ACE         0.0560
     69 H12       -20.4325  -12.0892   25.5601 H         1 ACE         0.0289
     70 H13       -19.1312  -11.1863   26.4073 H         1 ACE         0.0289
     71 H14       -17.5468  -11.6321   24.6017 H         1 ACE         0.0288
     72 H15       -18.8423  -12.3188   23.5639 H         1 ACE         0.0288
     73 H16       -17.6703  -14.2015   24.4604 H         1 ACE         0.0426
     74 H17       -19.1829  -14.0759   25.4211 H         1 ACE         0.0426
     75 H18       -19.0703  -13.8919   27.7674 H         1 ACE         0.0557
     76 H19       -17.6520  -13.5664   29.8157 H         1 ACE         0.0599
     77 H20       -15.2559  -13.0309   29.5615 H         1 ACE         0.0559
     78 H21       -14.2667  -12.7367   27.3283 H         1 ACE         0.0599
     79 H22       -15.6323  -13.0334   25.3039 H         1 ACE         0.0557
     80 H23       -20.3510   -4.2813   22.6120 H         1 ACE         0.1883
     81 H24       -22.7371   -4.5583   20.8782 H         1 ACE         0.0800
     82 H25       -21.4459   -2.9430   19.4799 H         1 ACE         0.0315
     83 H26       -20.0026   -3.1849   20.5215 H         1 ACE         0.0315
     84 H27       -21.4307   -2.3341   22.4711 H         1 ACE         0.0298
     85 H28       -21.1293    0.0323   21.7903 H         1 ACE         0.0232
     86 H29       -20.9436   -0.4829   20.0795 H         1 ACE         0.0232
     87 H30       -19.7182   -0.9658   21.3011 H         1 ACE         0.0232
     88 H31       -23.6374   -2.6700   21.3779 H         1 ACE         0.0232
     89 H32       -23.1956   -1.4690   20.1174 H         1 ACE         0.0232
     90 H33       -23.3922   -0.9477   21.8251 H         1 ACE         0.0232
     91 H34       -22.4255   -5.3121   18.5870 H         1 ACE         0.1885
     92 H35       -20.0227   -6.8380   18.0042 H         1 ACE         0.0817
     93 H36       -21.0495   -8.4626   19.5344 H         1 ACE         0.0420
     94 H37       -21.1904   -9.0693   17.8495 H         1 ACE         0.0420
     95 H38       -23.3274   -8.4478   20.9188 H         1 ACE         0.0729
     96 H39       -26.0361   -8.6013   17.5822 H         1 ACE         0.1199
     97 H40       -25.8552   -8.6437   20.1493 H         1 ACE         0.2361
     98 H41       -20.2243   -8.0267   15.9931 H         1 ACE         0.1884
     99 H42       -21.4250   -6.4653   13.9338 H         1 ACE         0.0823
    100 H43       -19.3480   -7.7191   13.6498 H         1 ACE         0.0606
    101 H44       -20.5791   -8.2407   12.4502 H         1 ACE         0.0606
    102 H45       -19.4859  -10.0059   13.4407 H         1 ACE         0.2097
    103 H46       -22.5946   -7.8822   12.0642 H         1 ACE         0.1884
    104 H47       -25.2537   -7.9438   13.1374 H         1 ACE         0.0830
    105 H48       -24.0214   -8.9729   10.4877 H         1 ACE         0.0695
    106 H49       -26.3253   -8.5850    9.5808 H         1 ACE         0.0260
    107 H50       -26.8881   -8.0892   11.2129 H         1 ACE         0.0260
    108 H51       -26.3697   -9.7836   10.9180 H         1 ACE         0.0260
    109 H52       -26.1900  -11.3113   13.6101 H         1 ACE         0.1815
    110 H53       -26.6922   -9.6562   13.5174 H         1 ACE         0.1815
@<TRIPOS>BOND
     1    1    2 2  
     2    1    3 1  
     3    1    4 am 
     4    4    5 1  
     5    4    8 1  
     6    5    6 1  
     7    5   10 1  
     8    6    7 2  
     9    6   22 am 
    10    8    9 1  
    11    9   10 1  
    12    9   11 1  
    13   11   12 1  
    14   12   13 1  
    15   13   14 1  
    16   14   15 1  
    17   15   16 1  
    18   16   17 ar 
    19   16   21 ar 
    20   17   18 ar 
    21   18   19 ar 
    22   19   20 ar 
    23   20   21 ar 
    24   22   23 1  
    25   23   24 1  
    26   23   26 1  
    27   24   25 2  
    28   24   30 am 
    29   26   27 1  
    30   27   28 1  
    31   27   29 1  
    32   30   31 1  
    33   31   32 1  
    34   31   34 1  
    35   32   33 2  
    36   32   40 am 
    37   34   35 1  
    38   35   36 1  
    39   35   37 2  
    40   36   38 2  
    41   37   39 1  
    42   38   39 1  
    43   40   41 1  
    44   41   42 1  
    45   41   44 1  
    46   42   43 2  
    47   42   46 am 
    48   44   45 1  
    49   46   47 1  
    50   47   48 1  
    51   47   55 1  
    52   48   49 1  
    53   48   50 1  
    54   50   51 1  
    55   51   52 ar 
    56   51   53 ar 
    57   51   54 ar 
    58   55   56 2  
    59   55   57 am 
    60    3   58 1  
    61    3   59 1  
    62    3   60 1  
    63    5   61 1  
    64    8   62 1  
    65    8   63 1  
    66    9   64 1  
    67   10   65 1  
    68   10   66 1  
    69   12   67 1  
    70   12   68 1  
    71   13   69 1  
    72   13   70 1  
    73   14   71 1  
    74   14   72 1  
    75   15   73 1  
    76   15   74 1  
    77   17   75 1  
    78   18   76 1  
    79   19   77 1  
    80   20   78 1  
    81   21   79 1  
    82   22   80 1  
    83   23   81 1  
    84   26   82 1  
    85   26   83 1  
    86   27   84 1  
    87   28   85 1  
    88   28   86 1  
    89   28   87 1  
    90   29   88 1  
    91   29   89 1  
    92   29   90 1  
    93   30   91 1  
    94   31   92 1  
    95   34   93 1  
    96   34   94 1  
    97   37   95 1  
    98   38   96 1  
    99   39   97 1  
   100   40   98 1  
   101   41   99 1  
   102   44  100 1  
   103   44  101 1  
   104   45  102 1  
   105   46  103 1  
   106   47  104 1  
   107   48  105 1  
   108   49  106 1  
   109   49  107 1  
   110   49  108 1  
   111   57  109 1  
   112   57  110 1  
@<TRIPOS>SUBSTRUCTURE
     1 ACE         1

