### 
### Created by X-TOOL on Fri Sep 26 17:34:57 2014
### 

@<TRIPOS>MOLECULE
4g8l_ligand
  105   113     1     0     0
SMALL
GAST_HUCK


@<TRIPOS>ATOM
      1 O1P         6.5710  -29.0660   28.4810 O.co2     1 MOL        -0.5537
      2 P           7.2100  -28.0670   29.3960 P.3       1 MOL         0.2008
      3 O2P         6.5340  -26.6490   29.2800 O.co2     1 MOL        -0.5537
      4 O3P         7.1400  -28.5950   30.8610 O.co2     1 MOL        -0.5537
      5 O5'         8.6680  -27.9640   28.9600 O.3       1 MOL        -0.2734
      6 C5'         9.0080  -27.5170   27.7100 C.3       1 MOL         0.1071
      7 C4'        10.4750  -27.7680   27.3990 C.3       1 MOL         0.1166
      8 O4'        11.5170  -27.0720   28.1940 O.3       1 MOL        -0.3532
      9 C1'        12.5570  -28.1150   28.5120 C.3       1 MOL         0.1491
     10 C2'        12.3860  -29.0340   27.3220 C.3       1 MOL         0.1591
     11 O2'        13.0440  -28.7690   26.1070 O.3       1 MOL        -0.2445
     12 C3'        10.9310  -29.2140   27.2930 C.3       1 MOL         0.1183
     13 O3'        10.3790  -30.0300   26.3310 O.3       1 MOL        -0.3860
     14 N9         12.5840  -27.9030   29.9390 N.2       1 MOL        -0.2805
     15 C8         12.0700  -28.7700   30.9000 C.2       1 MOL         0.1370
     16 N7         12.1780  -28.1030   32.2520 N.pl3     1 MOL        -0.1965
     17 C5         12.7520  -26.8120   32.0520 C.ar      1 MOL         0.2561
     18 C6         13.0750  -25.7590   32.9630 C.ar      1 MOL         0.2670
     19 N6         12.7990  -25.8680   34.3750 N.pl3     1 MOL        -0.2573
     20 C4         13.0150  -26.6470   30.6330 C.ar      1 MOL         0.1955
     21 N3         13.5950  -25.4370   30.1400 N.ar      1 MOL        -0.1872
     22 C2         13.9200  -24.3660   31.0770 C.ar      1 MOL         0.1433
     23 N1         13.6690  -24.5320   32.4500 N.ar      1 MOL        -0.1720
     24 P1         14.4550  -29.4660   25.9390 P.3       1 MOL         0.2557
     25 OBP        14.5540  -30.7040   26.9280 O.co2     1 MOL        -0.6177
     26 OCP        14.6680  -29.7910   24.4780 O.co2     1 MOL        -0.6177
     27 OF'        15.6160  -28.5090   26.4010 O.3       1 MOL        -0.2514
     28 CF'        15.5820  -27.1450   26.0490 C.3       1 MOL         0.1123
     29 CE'        16.6450  -26.3500   26.7760 C.3       1 MOL         0.1169
     30 OE'        16.3350  -25.7550   28.1300 O.3       1 MOL        -0.3549
     31 CB'        17.5420  -26.0680   28.9750 C.3       1 MOL         0.1428
     32 N19        16.8540  -26.9340   29.9330 N.2       1 MOL        -0.2785
     33 C18        16.2680  -28.1810   29.6180 C.2       1 MOL         0.1356
     34 N17        15.7450  -28.7410   30.8530 N.pl3     1 MOL        -0.1825
     35 C15        16.0390  -27.7760   31.9710 C.2       1 MOL         0.2568
     36 C14        16.6980  -26.6860   31.4300 C.2       1 MOL         0.1859
     37 N13        17.1270  -25.5640   32.2880 N.2       1 MOL        -0.2002
     38 C12        16.8650  -25.6020   33.6260 C.2       1 MOL         0.1604
     39 N11        16.2070  -26.6840   34.1690 N.pl3     1 MOL        -0.1931
     40 C16        15.7740  -27.8160   33.3030 C.3       1 MOL         0.1835
     41 N16        15.0900  -28.9500   33.8620 N.4       1 MOL         0.2719
     42 CC'        18.6890  -26.2890   27.9700 C.3       1 MOL         0.1244
     43 OC'        19.5760  -25.2430   27.6670 O.3       1 MOL        -0.3593
     44 CD'        18.0520  -26.9430   26.8070 C.3       1 MOL         0.1144
     45 OD'        18.8180  -26.9870   25.6490 O.3       1 MOL        -0.3863
     46 P2         20.7570  -25.0570   28.6660 P.3       1 MOL         0.0972
     47 OMP        20.3220  -25.4580   30.0600 O.2       1 MOL        -0.7551
     48 OP'        21.9270  -26.0220   28.1850 O.3       1 MOL        -0.3661
     49 CP'        21.9470  -26.4610   26.8450 C.3       1 MOL         0.0788
     50 CO'        23.3540  -26.8880   26.3620 C.3       1 MOL         0.1152
     51 OO'        24.4490  -25.9980   26.6480 O.3       1 MOL        -0.3366
     52 CL'        25.3830  -26.6890   27.5910 C.3       1 MOL         0.2010
     53 N29        26.0580  -26.0110   28.7210 N.pl3     1 MOL        -0.1919
     54 C28        27.2160  -25.2700   28.6660 C.2       1 MOL         0.1123
     55 N27        27.5070  -24.8250   29.9810 N.2       1 MOL        -0.2958
     56 C25        26.5330  -25.3030   30.8170 C.ar      1 MOL         0.1045
     57 C24        25.6210  -26.0430   30.0360 C.ar      1 MOL         0.1613
     58 N23        24.5070  -26.6570   30.6160 N.ar      1 MOL        -0.2714
     59 C22        24.2900  -26.5210   32.0430 C.ar      1 MOL         0.0533
     60 N21        25.1760  -25.7950   32.8180 N.ar      1 MOL        -0.2698
     61 C26        26.3130  -25.1780   32.2190 C.ar      1 MOL         0.1298
     62 N26        27.2280  -24.4300   33.0390 N.pl3     1 MOL        -0.3152
     63 CM'        24.9990  -28.2010   27.6120 C.3       1 MOL         0.1385
     64 OM'        26.0240  -29.1480   27.5870 O.3       1 MOL        -0.3836
     65 CN'        23.8490  -28.3210   26.6340 C.3       1 MOL         0.1147
     66 ON'        23.9050  -29.2290   25.5720 O.3       1 MOL        -0.3864
     67 H           8.8287  -26.4426   27.6703 H         1 MOL         0.0639
     68 H           8.4060  -28.0559   26.9784 H         1 MOL         0.0639
     69 H          10.4202  -27.3024   26.4150 H         1 MOL         0.0650
     70 H          13.6023  -28.4239   28.5233 H         1 MOL         0.0758
     71 H          12.9505  -29.9569   27.4550 H         1 MOL         0.0720
     72 H          10.5481  -29.8469   28.0936 H         1 MOL         0.0651
     73 H           9.4252  -30.0490   26.4380 H         1 MOL         0.2100
     74 H          11.6594  -29.7616   30.7094 H         1 MOL         0.1488
     75 H          11.8923  -28.5033   33.1456 H         1 MOL         0.2735
     76 H          12.3627  -26.7122   34.7457 H         1 MOL         0.2373
     77 H          13.0401  -25.1009   35.0025 H         1 MOL         0.2373
     78 H          14.3576  -23.4369   30.7117 H         1 MOL         0.1389
     79 H          14.6064  -26.7444   26.3244 H         1 MOL         0.0647
     80 H          15.7657  -27.0630   24.9777 H         1 MOL         0.0647
     81 H          16.6228  -25.5150   26.0757 H         1 MOL         0.0650
     82 H          18.1587  -25.4509   29.6284 H         1 MOL         0.0738
     83 H          16.2176  -28.6387   28.6301 H         1 MOL         0.1543
     84 H          15.2617  -29.6344   30.9464 H         1 MOL         0.2632
     85 H          17.1762  -24.7763   34.2658 H         1 MOL         0.1801
     86 H          16.0152  -26.7100   35.1705 H         1 MOL         0.2304
     87 H          15.0122  -27.8538   34.0816 H         1 MOL         0.1632
     88 H          14.9749  -28.8149   34.8664 H         1 MOL         0.2059
     89 H          14.1740  -29.0433   33.4231 H         1 MOL         0.2059
     90 H          15.6375  -29.7936   33.6917 H         1 MOL         0.2059
     91 H          19.4435  -26.9077   28.4559 H         1 MOL         0.0676
     92 H          17.9694  -28.0260   26.8983 H         1 MOL         0.0649
     93 H          19.0308  -26.0925   25.3733 H         1 MOL         0.2100
     94 H          21.6228  -25.6285   26.2206 H         1 MOL         0.0605
     95 H          21.2957  -27.3321   26.7739 H         1 MOL         0.0605
     96 H          23.0886  -26.8323   25.3063 H         1 MOL         0.0649
     97 H          26.4043  -26.5672   27.2301 H         1 MOL         0.0996
     98 H          27.8043  -25.0622   27.7722 H         1 MOL         0.1349
     99 H          23.4243  -26.9933   32.5073 H         1 MOL         0.0996
    100 H          28.0426  -23.9836   32.6175 H         1 MOL         0.1820
    101 H          27.0623  -24.3460   34.0419 H         1 MOL         0.1820
    102 H          24.6746  -28.5111   28.6053 H         1 MOL         0.0676
    103 H          25.6442  -30.0295   27.6039 H         1 MOL         0.2101
    104 H          23.0657  -28.9113   27.1096 H         1 MOL         0.0648
    105 H          23.0959  -29.1696   25.0586 H         1 MOL         0.2100
@<TRIPOS>BOND
     1    1    2 ar 
     2    2    3 ar 
     3    2    4 ar 
     4    2    5 1  
     5    5    6 1  
     6    6    7 1  
     7    7    8 1  
     8    7   12 1  
     9    8    9 1  
    10    9   10 1  
    11    9   14 1  
    12   10   11 1  
    13   10   12 1  
    14   11   24 1  
    15   12   13 1  
    16   14   15 2  
    17   14   20 1  
    18   15   16 1  
    19   16   17 1  
    20   17   18 ar 
    21   17   20 ar 
    22   18   19 1  
    23   18   23 ar 
    24   20   21 ar 
    25   21   22 ar 
    26   22   23 ar 
    27   24   25 ar 
    28   24   26 ar 
    29   24   27 1  
    30   27   28 1  
    31   28   29 1  
    32   29   30 1  
    33   29   44 1  
    34   30   31 1  
    35   31   32 1  
    36   31   42 1  
    37   32   33 2  
    38   32   36 1  
    39   33   34 1  
    40   34   35 1  
    41   35   36 2  
    42   35   40 1  
    43   36   37 1  
    44   37   38 2  
    45   38   39 1  
    46   39   40 1  
    47   40   41 1  
    48   42   43 1  
    49   42   44 1  
    50   43   46 1  
    51   44   45 1  
    52   46   47 2  
    53   46   48 1  
    54   48   49 1  
    55   49   50 1  
    56   50   51 1  
    57   50   65 1  
    58   51   52 1  
    59   52   53 1  
    60   52   63 1  
    61   53   54 1  
    62   53   57 1  
    63   54   55 2  
    64   55   56 1  
    65   56   57 ar 
    66   56   61 ar 
    67   57   58 ar 
    68   58   59 ar 
    69   59   60 ar 
    70   60   61 ar 
    71   61   62 1  
    72   63   64 1  
    73   63   65 1  
    74   65   66 1  
    75    6   67 1  
    76    6   68 1  
    77    7   69 1  
    78    9   70 1  
    79   10   71 1  
    80   12   72 1  
    81   13   73 1  
    82   15   74 1  
    83   16   75 1  
    84   19   76 1  
    85   19   77 1  
    86   22   78 1  
    87   28   79 1  
    88   28   80 1  
    89   29   81 1  
    90   31   82 1  
    91   33   83 1  
    92   34   84 1  
    93   38   85 1  
    94   39   86 1  
    95   40   87 1  
    96   41   88 1  
    97   41   89 1  
    98   41   90 1  
    99   42   91 1  
   100   44   92 1  
   101   45   93 1  
   102   49   94 1  
   103   49   95 1  
   104   50   96 1  
   105   52   97 1  
   106   54   98 1  
   107   59   99 1  
   108   62  100 1  
   109   62  101 1  
   110   63  102 1  
   111   64  103 1  
   112   65  104 1  
   113   66  105 1  
@<TRIPOS>SUBSTRUCTURE
     1 MOL         1

