### 
### Created by X-TOOL on Fri Sep 26 17:34:59 2014
### 

@<TRIPOS>MOLECULE
4ie2_ligand
   41    40     1     0     0
SMALL
GAST_HUCK


@<TRIPOS>ATOM
      1 O3         35.2100   89.1030   72.1650 O.co2     1 MOL        -0.5422
      2 C1         34.1470   88.6600   71.6660 C.2       1 MOL         0.0960
      3 O2         33.2160   89.4160   71.2990 O.co2     1 MOL        -0.5422
      4 C5         33.9640   87.1710   71.4990 C.3       1 MOL         0.0325
      5 N16        32.6610   86.9240   70.8600 N.4       1 MOL         0.2229
      6 C15        34.0130   86.4920   72.8700 C.3       1 MOL         0.0004
      7 C19        33.0670   87.1160   73.8880 C.3       1 MOL        -0.0248
      8 C20        32.8910   86.1730   75.0780 C.3       1 MOL         0.0443
      9 O21        32.0450   85.0890   74.6580 O.3       1 MOL        -0.3950
     10 C6         35.0820   86.5670   70.6600 C.3       1 MOL        -0.0017
     11 C7         35.2640   87.2290   69.3010 C.3       1 MOL        -0.0484
     12 C8         36.3430   86.5230   68.4710 C.3       1 MOL        -0.0558
     13 C9         36.9610   87.4990   67.4670 C.3       1 MOL        -0.0653
     14 B10        37.2660   86.8340   66.0550 B         1 MOL         4.0000
     15 O23        38.3930   85.8440   66.4050 O.2       1 MOL        -0.3512
     16 O13        36.2770   85.8660   65.4450 O.3       1 MOL        -0.4105
     17 O11        37.9710   87.7460   65.0790 O.3       1 MOL        -0.4105
     18 H1         32.5269   85.9318   70.7429 H         1 MOL         0.1999
     19 H2         32.6379   87.3748   69.9587 H         1 MOL         0.1999
     20 H3         31.9260   87.2961   71.4408 H         1 MOL         0.1999
     21 H4         35.0397   86.5638   73.2583 H         1 MOL         0.0316
     22 H5         33.7415   85.4334   72.7448 H         1 MOL         0.0316
     23 H6         32.0895   87.2949   73.4163 H         1 MOL         0.0288
     24 H7         33.4856   88.0711   74.2379 H         1 MOL         0.0288
     25 H8         32.4223   86.7106   75.9154 H         1 MOL         0.0557
     26 H9         33.8696   85.7830   75.3944 H         1 MOL         0.0557
     27 H10        31.9201   84.4872   75.3824 H         1 MOL         0.2094
     28 H11        34.8568   85.5025   70.4986 H         1 MOL         0.0316
     29 H12        36.0242   86.6618   71.2197 H         1 MOL         0.0316
     30 H13        35.5583   88.2782   69.4512 H         1 MOL         0.0266
     31 H14        34.3104   87.1903   68.7541 H         1 MOL         0.0266
     32 H15        35.8901   85.6809   67.9273 H         1 MOL         0.0263
     33 H16        37.1289   86.1461   69.1420 H         1 MOL         0.0263
     34 H17        37.9136   87.0911   67.0980 H         1 MOL         0.0230
     35 H18        37.1422   88.4657   67.9594 H         1 MOL         0.0230
     36 H19        36.2713   87.6415   66.6221 H         1 MOL         0.0230
     37 H20        38.9562   85.1752   65.9197 H         1 MOL         0.3512
     38 H21        37.1141   86.1823   65.1262 H         1 MOL         0.2052
     39 H22        36.0179   86.3715   66.2065 H         1 MOL         0.2052
     40 H23        37.0475   87.7611   64.8566 H         1 MOL         0.2052
     41 H24        38.1656   86.9532   65.5649 H         1 MOL         0.2052
@<TRIPOS>BOND
     1    1    2 ar 
     2    2    3 ar 
     3    2    4 1  
     4    4    5 1  
     5    4    6 1  
     6    4   10 1  
     7    6    7 1  
     8    7    8 1  
     9    8    9 1  
    10   10   11 1  
    11   11   12 1  
    12   12   13 1  
    13   13   14 1  
    14   14   16 1  
    15   14   17 1  
    16   15   14 2  
    17    5   18 1  
    18    5   19 1  
    19    5   20 1  
    20    6   21 1  
    21    6   22 1  
    22    7   23 1  
    23    7   24 1  
    24    8   25 1  
    25    8   26 1  
    26    9   27 1  
    27   10   28 1  
    28   10   29 1  
    29   11   30 1  
    30   11   31 1  
    31   12   32 1  
    32   12   33 1  
    33   13   34 1  
    34   13   35 1  
    35   13   36 1  
    36   15   37 1  
    37   16   38 1  
    38   16   39 1  
    39   17   40 1  
    40   17   41 1  
@<TRIPOS>SUBSTRUCTURE
     1 MOL         1

