### 
### Created by X-TOOL on Fri Sep 26 17:35:01 2014
### 

@<TRIPOS>MOLECULE
4jbs_ligand
   73    75     1     0     0
SMALL
GAST_HUCK


@<TRIPOS>ATOM
      1 O1         20.5360    5.5820    0.7930 O.co2     1 P52        -0.6154
      2 O2         20.1780    3.2700    0.2710 O.co2     1 P52        -0.6154
      3 C1         16.8340    3.4090    3.0480 C.3       1 P52        -0.0124
      4 C2         15.8140    2.2780    3.0250 C.ar      1 P52        -0.0428
      5 C3         14.4530    2.4320    2.8050 C.ar      1 P52        -0.0603
      6 C4         13.6460    1.2870    2.7930 C.ar      1 P52        -0.0686
      7 C5         14.1200    0.0270    2.9840 C.ar      1 P52        -0.0687
      8 C6         15.4950   -0.1410    3.2040 C.ar      1 P52        -0.0686
      9 N1         17.6300    5.1390    0.5840 N.4       1 P52         0.2337
     10 C7         16.3150    0.9970    3.2190 C.ar      1 P52        -0.0603
     11 C8         17.6830    3.3060    1.7870 C.3       1 P52         0.0167
     12 O3         19.5300    1.0650    2.3080 O.2       1 P52        -0.3966
     13 C9         18.2340    4.5180    1.5380 C.3       1 P52         0.0391
     14 C10        20.5060    1.3720    2.9700 C.2       1 P52         0.1829
     15 C11        20.6630    3.9370    2.6540 C.3       1 P52         0.0382
     16 C12        21.3810    2.5530    2.5660 C.3       1 P52         0.0649
     17 N2         20.6530    0.7810    4.2640 N.am      1 P52        -0.2643
     18 C13        22.6460    2.6050    3.4800 C.3       1 P52        -0.0294
     19 C14        23.9490    2.1440    2.8080 C.3       1 P52        -0.0443
     20 C15        24.9390    3.3000    2.6390 C.3       1 P52        -0.0625
     21 C16        23.5850    1.5330    1.4510 C.3       1 P52        -0.0625
     22 C17        21.0760   -0.3830    5.0410 C.3       1 P52         0.1348
     23 N3         18.8140   -2.0220    1.4600 N.pl3     1 P52        -0.2890
     24 P1         19.9710    4.3240    1.2620 P.3       1 P52         0.0381
     25 C18        22.4550   -0.8760    4.6060 C.2       1 P52         0.2004
     26 C19        20.0550   -1.5140    4.9130 C.3       1 P52         0.0042
     27 C20        19.7780   -1.8930    3.4870 C.2       1 P52        -0.0418
     28 C21        18.7280   -1.4770    2.7220 C.2       1 P52         0.0167
     29 C22        20.5720   -2.7490    2.6480 C.ar      1 P52        -0.0214
     30 C23        19.9360   -2.8080    1.3900 C.ar      1 P52         0.0603
     31 C24        21.7540   -3.4770    2.8410 C.ar      1 P52        -0.0747
     32 C25        20.4450   -3.5650    0.3260 C.ar      1 P52        -0.0443
     33 C26        22.2550   -4.2280    1.7780 C.ar      1 P52        -0.0792
     34 C27        21.6000   -4.2630    0.5420 C.ar      1 P52        -0.0768
     35 O4         22.8200   -0.7700    3.4380 O.2       1 P52        -0.3946
     36 N4         23.2750   -1.6050    5.5220 N.am      1 P52        -0.2989
     37 H1         17.4745    3.3155    3.9374 H         1 P52         0.0428
     38 H2         16.3152    4.3787    3.0700 H         1 P52         0.0428
     39 H3         14.0242    3.4148    2.6462 H         1 P52         0.0557
     40 H4         12.5830    1.4127    2.6217 H         1 P52         0.0599
     41 H5         13.4519   -0.8264    2.9667 H         1 P52         0.0559
     42 H6         15.9147   -1.1284    3.3590 H         1 P52         0.0599
     43 H7         16.6488    5.2161    0.8016 H         1 P52         0.2013
     44 H8         17.7441    4.6259   -0.2761 H         1 P52         0.2013
     45 H9         18.0245    6.0608    0.4803 H         1 P52         0.2013
     46 H10        17.3784    0.8722    3.3882 H         1 P52         0.0557
     47 H11        17.0514    3.0045    0.9384 H         1 P52         0.0359
     48 H12        18.4782    2.5606    1.9353 H         1 P52         0.0359
     49 H13        18.1123    5.1310    2.4432 H         1 P52         0.1066
     50 H14        21.4030    4.7086    2.9129 H         1 P52         0.0495
     51 H15        19.8917    3.8913    3.4369 H         1 P52         0.0495
     52 H16        21.6974    2.3970    1.5241 H         1 P52         0.0554
     53 H17        20.3237    1.4570    4.9232 H         1 P52         0.1884
     54 H18        22.4644    1.9596    4.3520 H         1 P52         0.0295
     55 H19        22.7832    3.6438    3.8149 H         1 P52         0.0295
     56 H20        24.4209    1.3732    3.4350 H         1 P52         0.0297
     57 H21        25.8555    2.9302    2.1560 H         1 P52         0.0232
     58 H22        25.1875    3.7173    3.6260 H         1 P52         0.0232
     59 H23        24.4853    4.0829    2.0136 H         1 P52         0.0232
     60 H24        22.8743    0.7067    1.5997 H         1 P52         0.0232
     61 H25        24.4948    1.1510    0.9649 H         1 P52         0.0232
     62 H26        23.1245    2.3025    0.8140 H         1 P52         0.0232
     63 H27        21.1345   -0.0854    6.0983 H         1 P52         0.0815
     64 H28        18.1445   -1.8649    0.6932 H         1 P52         0.2216
     65 H29        19.1128   -1.1906    5.3794 H         1 P52         0.0397
     66 H30        20.4418   -2.3975    5.4420 H         1 P52         0.0397
     67 H31        17.9361   -0.8103    3.0602 H         1 P52         0.0795
     68 H32        22.2675   -3.4568    3.7955 H         1 P52         0.0540
     69 H33        19.9410   -3.5958   -0.6332 H         1 P52         0.0541
     70 H34        23.1690   -4.7953    1.9118 H         1 P52         0.0510
     71 H35        22.0181   -4.8572   -0.2624 H         1 P52         0.0530
     72 H36        24.1777   -1.9277    5.2373 H         1 P52         0.1815
     73 H37        22.9460   -1.7923    6.4476 H         1 P52         0.1815
@<TRIPOS>BOND
     1   24    1 ar 
     2   24    2 ar 
     3    3    4 1  
     4   11    3 1  
     5    4    5 ar 
     6    4   10 ar 
     7    5    6 ar 
     8    6    7 ar 
     9    8    7 ar 
    10   10    8 ar 
    11   13    9 1  
    12   13   11 1  
    13   14   12 2  
    14   24   13 1  
    15   14   16 1  
    16   17   14 am 
    17   16   15 1  
    18   15   24 1  
    19   16   18 1  
    20   22   17 1  
    21   18   19 1  
    22   19   20 1  
    23   19   21 1  
    24   22   25 1  
    25   26   22 1  
    26   28   23 1  
    27   23   30 1  
    28   25   35 2  
    29   25   36 am 
    30   27   26 1  
    31   27   28 2  
    32   27   29 1  
    33   29   30 ar 
    34   29   31 ar 
    35   30   32 ar 
    36   31   33 ar 
    37   32   34 ar 
    38   33   34 ar 
    39    3   37 1  
    40    3   38 1  
    41    5   39 1  
    42    6   40 1  
    43    7   41 1  
    44    8   42 1  
    45    9   43 1  
    46    9   44 1  
    47    9   45 1  
    48   10   46 1  
    49   11   47 1  
    50   11   48 1  
    51   13   49 1  
    52   15   50 1  
    53   15   51 1  
    54   16   52 1  
    55   17   53 1  
    56   18   54 1  
    57   18   55 1  
    58   19   56 1  
    59   20   57 1  
    60   20   58 1  
    61   20   59 1  
    62   21   60 1  
    63   21   61 1  
    64   21   62 1  
    65   22   63 1  
    66   23   64 1  
    67   26   65 1  
    68   26   66 1  
    69   28   67 1  
    70   31   68 1  
    71   32   69 1  
    72   33   70 1  
    73   34   71 1  
    74   36   72 1  
    75   36   73 1  
@<TRIPOS>SUBSTRUCTURE
     1 P52         1

