### 
### Created by X-TOOL on Fri Sep 26 17:34:59 2014
### 

@<TRIPOS>MOLECULE
4jiz_ligand
  142   144     1     0     0
SMALL
GAST_HUCK


@<TRIPOS>ATOM
      1 N          -4.3830   25.9260   -8.7220 N.4       1 TYR         0.2392
      2 CA         -4.8360   25.0940   -7.5670 C.3       1 TYR         0.0730
      3 C          -4.1640   23.7290   -7.6070 C.2       1 TYR         0.2287
      4 O          -3.8710   23.1950   -8.6780 O.2       1 TYR        -0.3905
      5 CB         -6.3610   24.9210   -7.5740 C.3       1 TYR         0.0365
      6 CG         -7.1270   26.2080   -7.3560 C.ar      1 TYR        -0.0460
      7 CD1        -7.1100   26.8500   -6.1240 C.ar      1 TYR        -0.0684
      8 CD2        -7.8720   26.7770   -8.3810 C.ar      1 TYR        -0.0684
      9 CE1        -7.8060   28.0270   -5.9210 C.ar      1 TYR        -0.0398
     10 CE2        -8.5740   27.9520   -8.1870 C.ar      1 TYR        -0.0398
     11 CZ         -8.5360   28.5730   -6.9560 C.ar      1 TYR         0.0805
     12 OH         -9.2340   29.7420   -6.7610 O.3       1 TYR        -0.3376
     13 N          -3.9230   23.1740   -6.4250 N.am      1 TYR        -0.2596
     14 CA         -3.3100   21.8620   -6.3050 C.3       1 TYR         0.1370
     15 C          -4.2180   20.9190   -5.5290 C.2       1 TYR         0.2054
     16 O          -4.6070   21.1990   -4.3960 O.2       1 TYR        -0.3942
     17 CB         -1.9610   21.9730   -5.6020 C.3       1 TYR         0.0145
     18 CG         -1.0210   22.9410   -6.2490 C.2       1 TYR        -0.0027
     19 ND1        -0.2280   22.6010   -7.3210 N.2       1 TYR        -0.3252
     20 CD2        -0.7460   24.2380   -5.9700 C.2       1 TYR         0.0291
     21 CE1         0.4960   23.6480   -7.6790 C.2       1 TYR         0.0907
     22 NE2         0.2000   24.6530   -6.8750 N.pl3     1 TYR        -0.2752
     23 N          -4.5460   19.7960   -6.1540 N.am      1 TYR        -0.2612
     24 CA         -5.4330   18.8030   -5.5620 C.3       1 TYR         0.1586
     25 CB         -5.9810   17.8860   -6.6570 C.3       1 TYR         0.1184
     26 OG         -4.9610   17.5320   -7.5750 O.3       1 TYR        -0.2714
     27 C          -4.7180   17.9700   -4.5010 C.2       1 TYR         0.2065
     28 O          -5.3500   17.2100   -3.7630 O.2       1 TYR        -0.3943
     29 P          -5.5630   16.9000   -8.9230 P.3       1 TYR         0.2010
     30 O1P        -6.8170   15.9550   -8.5850 O.co2     1 TYR        -0.5537
     31 O2P        -6.0560   18.0590   -9.9170 O.co2     1 TYR        -0.5537
     32 O3P        -4.4270   16.0400   -9.6640 O.co2     1 TYR        -0.5537
     33 N          -3.4210   17.7400   -4.6870 N.am      1 TYR        -0.2634
     34 CA         -2.6480   16.9430   -3.7370 C.3       1 TYR         0.1333
     35 C          -1.8180   17.8230   -2.8070 C.2       1 TYR         0.2042
     36 O          -1.0010   18.6250   -3.2590 O.2       1 TYR        -0.3944
     37 CB         -1.6950   15.9680   -4.4500 C.3       1 TYR        -0.0063
     38 CG1        -1.1490   14.9580   -3.4580 C.3       1 TYR        -0.0584
     39 CG2        -2.4030   15.2610   -5.5930 C.3       1 TYR        -0.0584
     40 N          -2.0350   17.6600   -1.5050 N.am      1 TYR        -0.2635
     41 CA         -1.2610   18.3640   -0.4930 C.3       1 TYR         0.1332
     42 C          -0.3600   17.3700    0.2370 C.2       1 TYR         0.2041
     43 O          -0.8400   16.4180    0.8520 O.2       1 TYR        -0.3944
     44 CB         -2.1740   19.0550    0.5360 C.3       1 TYR        -0.0063
     45 CG1        -1.3450   19.8790    1.5140 C.3       1 TYR        -0.0584
     46 CG2        -3.2010   19.9320   -0.1630 C.3       1 TYR        -0.0584
     47 N           0.9470   17.5910    0.1610 N.am      1 TYR        -0.2637
     48 CA          1.9080   16.6770    0.7680 C.3       1 TYR         0.1311
     49 C           2.4140   17.1980    2.1100 C.2       1 TYR         0.2040
     50 O           2.6290   18.3980    2.2780 O.2       1 TYR        -0.3944
     51 CB          3.0710   16.4320   -0.1950 C.3       1 TYR        -0.0092
     52 CG          2.6300   15.7780   -1.4980 C.3       1 TYR        -0.0156
     53 CD          3.7570   15.6440   -2.5070 C.3       1 TYR         0.0627
     54 NE          3.2380   15.2980   -3.8290 N.pl3     1 TYR        -0.2723
     55 CZ          2.5750   16.1400   -4.6180 C.cat     1 TYR         0.2882
     56 NH1         2.3400   17.3860   -4.2260 N.pl3     1 TYR        -0.2849
     57 NH2         2.1390   15.7360   -5.8020 N.pl3     1 TYR        -0.2849
     58 N           2.5940   16.2850    3.0620 N.am      1 TYR        -0.2621
     59 CA          3.0520   16.6370    4.4050 C.3       1 TYR         0.1390
     60 C           4.1930   15.7240    4.8530 C.2       1 TYR         0.2052
     61 O           4.4040   14.6520    4.2870 O.2       1 TYR        -0.3943
     62 CB          1.9030   16.5400    5.4160 C.3       1 TYR         0.0163
     63 CG          0.8660   17.6370    5.3060 C.ar      1 TYR        -0.0493
     64 CD1         1.1610   18.9420    5.6800 C.ar      1 TYR        -0.0685
     65 CD2        -0.4170   17.3610    4.8520 C.ar      1 TYR        -0.0685
     66 CE1         0.2150   19.9440    5.5870 C.ar      1 TYR        -0.0398
     67 CE2        -1.3720   18.3580    4.7560 C.ar      1 TYR        -0.0398
     68 CZ         -1.0500   19.6470    5.1260 C.ar      1 TYR         0.0805
     69 OH         -1.9950   20.6420    5.0350 O.3       1 TYR        -0.3376
     70 N           4.9160   16.1590    5.8820 N.am      1 TYR        -0.2696
     71 CA          6.0110   15.3870    6.4610 C.3       1 TYR         0.0916
     72 C           5.8370   15.2950    7.9740 C.2       1 TYR         0.0598
     73 O           4.9124   14.6008    8.4747 O.co2     1 TYR        -0.5666
     74 CB          7.3450   16.0280    6.1250 C.3       1 TYR        -0.0300
     75 O           6.6266   15.9201    8.7312 O.co2     1 TYR        -0.5666
     76 H1         -4.8343   26.8266   -8.6848 H         1 TYR         0.2017
     77 H2         -4.6255   25.4641   -9.5845 H         1 TYR         0.2017
     78 H3         -3.3836   26.0489   -8.6761 H         1 TYR         0.2017
     79 H4         -4.5460   25.6033   -6.6361 H         1 TYR         0.1120
     80 H5         -6.6330   24.2168   -6.7740 H         1 TYR         0.0486
     81 H6         -6.6573   24.5027   -8.5472 H         1 TYR         0.0486
     82 H7         -6.5409   26.4204   -5.3075 H         1 TYR         0.0530
     83 H8         -7.9035   26.2914   -9.3496 H         1 TYR         0.0530
     84 H9         -7.7782   28.5176   -4.9548 H         1 TYR         0.0525
     85 H10        -9.1508   28.3827   -8.9974 H         1 TYR         0.0525
     86 H11        -9.1065   30.0405   -5.8682 H         1 TYR         0.2458
     87 H12        -4.1702   23.6728   -5.5943 H         1 TYR         0.1886
     88 H13        -3.1525   21.4525   -7.3137 H         1 TYR         0.0817
     89 H14        -1.4884   20.9797   -5.5994 H         1 TYR         0.0420
     90 H15        -2.1355   22.2988   -4.5660 H         1 TYR         0.0420
     91 H16        -1.1911   24.8381   -5.1777 H         1 TYR         0.0729
     92 H17         1.2140   23.6766   -8.4973 H         1 TYR         0.1199
     93 H18         0.6121   25.5959   -6.9195 H         1 TYR         0.2361
     94 H19        -4.1708   19.6245   -7.0649 H         1 TYR         0.1884
     95 H20        -6.2736   19.3275   -5.0842 H         1 TYR         0.0827
     96 H21        -6.7853   18.4084   -7.1957 H         1 TYR         0.0662
     97 H22        -6.3827   16.9724   -6.1945 H         1 TYR         0.0662
     98 H23        -2.9662   18.1199   -5.4925 H         1 TYR         0.1883
     99 H24        -3.3562   16.3601   -3.1298 H         1 TYR         0.0802
    100 H25        -0.8535   16.5423   -4.8646 H         1 TYR         0.0343
    101 H26        -0.4692   14.2657   -3.9763 H         1 TYR         0.0234
    102 H27        -1.9817   14.3917   -3.0154 H         1 TYR         0.0234
    103 H28        -0.6002   15.4844   -2.6632 H         1 TYR         0.0234
    104 H29        -2.7917   16.0075   -6.3012 H         1 TYR         0.0234
    105 H30        -3.2369   14.6644   -5.1948 H         1 TYR         0.0234
    106 H31        -1.6931   14.5993   -6.1108 H         1 TYR         0.0234
    107 H32        -2.7552   17.0317   -1.2109 H         1 TYR         0.1883
    108 H33        -0.6395   19.1254   -0.9870 H         1 TYR         0.0802
    109 H34        -2.7090   18.2784    1.1022 H         1 TYR         0.0343
    110 H35        -2.0120   20.3651    2.2411 H         1 TYR         0.0234
    111 H36        -0.7827   20.6465    0.9621 H         1 TYR         0.0234
    112 H37        -0.6421   19.2201    2.0447 H         1 TYR         0.0234
    113 H38        -3.7888   19.3209   -0.8637 H         1 TYR         0.0234
    114 H39        -2.6853   20.7306   -0.7165 H         1 TYR         0.0234
    115 H40        -3.8718   20.3789    0.5855 H         1 TYR         0.0234
    116 H41         1.2794   18.4008   -0.3224 H         1 TYR         0.1883
    117 H42         1.4008   15.7175    0.9474 H         1 TYR         0.0800
    118 H43         3.8031   15.7753    0.2977 H         1 TYR         0.0313
    119 H44         3.5434   17.3975   -0.4286 H         1 TYR         0.0313
    120 H45         1.8314   16.3890   -1.9439 H         1 TYR         0.0301
    121 H46         2.2409   14.7742   -1.2721 H         1 TYR         0.0301
    122 H47         4.4466   14.8546   -2.1734 H         1 TYR         0.0689
    123 H48         4.2975   16.5998   -2.5717 H         1 TYR         0.0689
    124 H49         3.3958   14.3398   -4.1723 H         1 TYR         0.2642
    125 H50         1.8261   18.0316   -4.8425 H         1 TYR         0.2615
    126 H51         2.6715   17.7074   -3.3053 H         1 TYR         0.2615
    127 H52         2.3168   14.7708   -6.1144 H         1 TYR         0.2615
    128 H53         1.6222   16.3872   -6.4101 H         1 TYR         0.2615
    129 H54         2.4095   15.3250    2.8511 H         1 TYR         0.1885
    130 H55         3.4180   17.6741    4.3852 H         1 TYR         0.0821
    131 H56         2.3334   16.5763    6.4276 H         1 TYR         0.0453
    132 H57         1.3969   15.5747    5.2672 H         1 TYR         0.0453
    133 H58         2.1516   19.1781    6.0515 H         1 TYR         0.0530
    134 H59        -0.6749   16.3472    4.5679 H         1 TYR         0.0530
    135 H60         0.4658   20.9585    5.8749 H         1 TYR         0.0525
    136 H61        -2.3668   18.1273    4.3923 H         1 TYR         0.0525
    137 H62        -1.6170   21.4638    5.3254 H         1 TYR         0.2458
    138 H63         4.6999   17.0527    6.2752 H         1 TYR         0.1875
    139 H64         5.9908   14.3715    6.0388 H         1 TYR         0.0723
    140 H65         8.1587   15.4350    6.5680 H         1 TYR         0.0270
    141 H66         7.3733   17.0500    6.5308 H         1 TYR         0.0270
    142 H67         7.4700   16.0636    5.0327 H         1 TYR         0.0270
@<TRIPOS>BOND
     1    1    2 1  
     2    2    3 1  
     3    2    5 1  
     4    3    4 2  
     5    3   13 am 
     6    5    6 1  
     7    6    7 ar 
     8    6    8 ar 
     9    7    9 ar 
    10    8   10 ar 
    11    9   11 ar 
    12   10   11 ar 
    13   11   12 1  
    14   13   14 1  
    15   14   15 1  
    16   14   17 1  
    17   15   16 2  
    18   15   23 am 
    19   17   18 1  
    20   18   19 1  
    21   18   20 2  
    22   19   21 2  
    23   20   22 1  
    24   21   22 1  
    25   23   24 1  
    26   24   25 1  
    27   24   27 1  
    28   25   26 1  
    29   26   29 1  
    30   27   28 2  
    31   27   33 am 
    32   29   30 ar 
    33   29   31 ar 
    34   29   32 ar 
    35   33   34 1  
    36   34   35 1  
    37   34   37 1  
    38   35   36 2  
    39   35   40 am 
    40   37   38 1  
    41   37   39 1  
    42   40   41 1  
    43   41   42 1  
    44   41   44 1  
    45   42   43 2  
    46   42   47 am 
    47   44   45 1  
    48   44   46 1  
    49   47   48 1  
    50   48   49 1  
    51   48   51 1  
    52   49   50 2  
    53   49   58 am 
    54   51   52 1  
    55   52   53 1  
    56   53   54 1  
    57   54   55 ar 
    58   55   56 ar 
    59   55   57 ar 
    60   58   59 1  
    61   59   60 1  
    62   59   62 1  
    63   60   61 2  
    64   60   70 am 
    65   62   63 1  
    66   63   64 ar 
    67   63   65 ar 
    68   64   66 ar 
    69   65   67 ar 
    70   66   68 ar 
    71   67   68 ar 
    72   68   69 1  
    73   70   71 1  
    74   71   72 1  
    75   71   74 1  
    76   72   73 ar 
    77   72   75 ar 
    78    1   76 1  
    79    1   77 1  
    80    1   78 1  
    81    2   79 1  
    82    5   80 1  
    83    5   81 1  
    84    7   82 1  
    85    8   83 1  
    86    9   84 1  
    87   10   85 1  
    88   12   86 1  
    89   13   87 1  
    90   14   88 1  
    91   17   89 1  
    92   17   90 1  
    93   20   91 1  
    94   21   92 1  
    95   22   93 1  
    96   23   94 1  
    97   24   95 1  
    98   25   96 1  
    99   25   97 1  
   100   33   98 1  
   101   34   99 1  
   102   37  100 1  
   103   38  101 1  
   104   38  102 1  
   105   38  103 1  
   106   39  104 1  
   107   39  105 1  
   108   39  106 1  
   109   40  107 1  
   110   41  108 1  
   111   44  109 1  
   112   45  110 1  
   113   45  111 1  
   114   45  112 1  
   115   46  113 1  
   116   46  114 1  
   117   46  115 1  
   118   47  116 1  
   119   48  117 1  
   120   51  118 1  
   121   51  119 1  
   122   52  120 1  
   123   52  121 1  
   124   53  122 1  
   125   53  123 1  
   126   54  124 1  
   127   56  125 1  
   128   56  126 1  
   129   57  127 1  
   130   57  128 1  
   131   58  129 1  
   132   59  130 1  
   133   62  131 1  
   134   62  132 1  
   135   64  133 1  
   136   65  134 1  
   137   66  135 1  
   138   67  136 1  
   139   69  137 1  
   140   70  138 1  
   141   71  139 1  
   142   74  140 1  
   143   74  141 1  
   144   74  142 1  
@<TRIPOS>SUBSTRUCTURE
     1 TYR         1

