### 
### Created by X-TOOL on Sat Nov 28 16:00:49 2015
### 

@<TRIPOS>MOLECULE
4jzb_ligand
   35    36     1     0     0
SMALL
GAST_HUCK


@<TRIPOS>ATOM
      1 C7         54.9420   44.2800   38.4620 C.3       1 P2H         0.0800
      2 C8         54.8560   45.5830   39.2760 C.3       1 P2H         0.2193
      3 P9         56.4060   45.9330   40.1850 P.3       1 P2H         0.1113
      4 O10        56.6590   44.8460   41.2030 O.co2     1 P2H        -0.5594
      5 O11        56.1870   47.2900   40.8060 O.co2     1 P2H        -0.5594
      6 N12        55.9330   44.1720   37.3790 N.ar      1 P2H        -0.3172
      7 O12        57.5040   45.9920   39.1500 O.co2     1 P2H        -0.5594
      8 C13        56.1550   45.1770   36.5010 C.ar      1 P2H         0.0382
      9 O13        54.6160   46.7070   38.4030 O.3       1 P2H        -0.3584
     10 C14        57.0920   45.0370   35.4760 C.ar      1 P2H         0.0089
     11 P14        53.3750   45.3750   40.3370 P.3       1 P2H         0.1113
     12 C15        57.7970   43.8420   35.3550 C.ar      1 P2H         0.0187
     13 O15        53.2480   46.6490   41.1350 O.co2     1 P2H        -0.5594
     14 C16        57.5570   42.8050   36.2570 C.ar      1 P2H         0.0961
     15 O16        53.6510   44.1620   41.1870 O.co2     1 P2H        -0.5594
     16 C17        56.6040   43.0060   37.2590 C.ar      1 P2H         0.0618
     17 O17        52.2240   45.1590   39.3820 O.co2     1 P2H        -0.5594
     18 C18        58.2930   41.5030   36.1600 C.ar      1 P2H         0.0801
     19 C19        58.8120   41.0660   34.9420 C.ar      1 P2H         0.0115
     20 C20        59.5020   39.8590   34.8520 C.ar      1 P2H        -0.0042
     21 C21        59.6660   39.0530   35.9800 C.ar      1 P2H        -0.0053
     22 C22        59.1450   39.4760   37.2060 C.ar      1 P2H        -0.0042
     23 C23        58.4750   40.7020   37.2890 C.ar      1 P2H         0.0115
     24 H          53.9527   44.1185   38.0091 H         1 P2H         0.0507
     25 H          55.1557   43.4698   39.1746 H         1 P2H         0.0507
     26 H          55.5983   46.1024   36.5947 H         1 P2H         0.1180
     27 H          54.5298   47.4975   38.9228 H         1 P2H         0.2133
     28 H          57.2692   45.8500   34.7813 H         1 P2H         0.0850
     29 H          58.5282   43.7183   34.5643 H         1 P2H         0.1006
     30 H          56.3977   42.2044   37.9589 H         1 P2H         0.1165
     31 H          58.6770   41.6729   34.0540 H         1 P2H         0.0949
     32 H          59.9141   39.5438   33.9002 H         1 P2H         0.0809
     33 H          60.1923   38.1083   35.9057 H         1 P2H         0.1104
     34 H          59.2593   38.8573   38.0887 H         1 P2H         0.0809
     35 H          58.0908   41.0354   38.2462 H         1 P2H         0.0949
@<TRIPOS>BOND
     1    1    2 1  
     2    1    6 1  
     3    2    3 1  
     4    2    9 1  
     5    2   11 1  
     6    3    4 ar 
     7    3    5 ar 
     8    3    7 ar 
     9    6    8 ar 
    10    6   16 ar 
    11    8   10 ar 
    12   10   12 ar 
    13   11   13 ar 
    14   11   15 ar 
    15   11   17 ar 
    16   12   14 ar 
    17   14   16 ar 
    18   14   18 1  
    19   18   19 ar 
    20   18   23 ar 
    21   19   20 ar 
    22   20   21 ar 
    23   21   22 ar 
    24   22   23 ar 
    25    1   24 1  
    26    1   25 1  
    27    8   26 1  
    28    9   27 1  
    29   10   28 1  
    30   12   29 1  
    31   16   30 1  
    32   19   31 1  
    33   20   32 1  
    34   21   33 1  
    35   22   34 1  
    36   23   35 1  
@<TRIPOS>SUBSTRUCTURE
     1 P2H         1

