### 
### Created by X-TOOL on Sat Nov 28 16:05:33 2015
### 

@<TRIPOS>MOLECULE
4k10_ligand
   25    25     1     0     0
SMALL
GAST_HUCK


@<TRIPOS>ATOM
      1 C1         39.5930   67.8860   85.1560 C.3       1 NI9         0.2204
      2 O1         41.2300   65.9580   84.2890 O.co2     1 NI9        -0.5594
      3 O2         38.9590   66.9680   86.0450 O.3       1 NI9        -0.3584
      4 C2         38.5840   68.9340   84.6820 C.3       1 NI9         0.0906
      5 O3         39.0000   66.2540   83.1650 O.co2     1 NI9        -0.5594
      6 C3         36.6790   69.7280   85.9770 C.ar      1 NI9         0.1443
      7 P1         40.8970   68.6880   86.1450 P.3       1 NI9         0.1114
      8 P2         40.2240   66.9360   83.7250 P.3       1 NI9         0.1114
      9 O4         40.4740   70.1260   86.3620 O.co2     1 NI9        -0.5594
     10 O5         40.8260   67.9310   82.7600 O.co2     1 NI9        -0.5594
     11 O6         42.1940   68.5730   85.3700 O.co2     1 NI9        -0.5594
     12 O7         40.9240   67.8680   87.4150 O.co2     1 NI9        -0.5594
     13 N          37.2260   68.7550   85.2250 N.ar      1 NI9        -0.2728
     14 F          34.8500   70.5620   87.2570 F         1 NI9        -0.0606
     15 C4         34.6480   68.4440   86.2370 C.ar      1 NI9         0.0911
     16 C5         36.5190   67.6380   84.9540 C.ar      1 NI9         0.0855
     17 C6         35.2260   67.4510   85.4520 C.ar      1 NI9         0.0542
     18 C7         35.3870   69.5910   86.5010 C.ar      1 NI9         0.2967
     19 H          39.5982   66.3381   86.3567 H         1 NI9         0.2133
     20 H          38.5258   68.8851   83.5846 H         1 NI9         0.0519
     21 H          38.9488   69.9262   84.9860 H         1 NI9         0.0519
     22 H          37.2456   70.6296   86.1799 H         1 NI9         0.1489
     23 H          33.6458   68.3258   86.6329 H         1 NI9         0.1056
     24 H          36.9642   66.8672   84.3354 H         1 NI9         0.1581
     25 H          34.6794   66.5419   85.2289 H         1 NI9         0.1126
@<TRIPOS>BOND
     1    1    3 1  
     2    4    1 1  
     3    1    7 1  
     4    1    8 1  
     5    8    2 ar 
     6   13    4 1  
     7    8    5 ar 
     8    6   13 ar 
     9   18    6 ar 
    10    7    9 ar 
    11    7   11 ar 
    12    7   12 ar 
    13    8   10 ar 
    14   13   16 ar 
    15   18   14 1  
    16   15   17 ar 
    17   15   18 ar 
    18   16   17 ar 
    19    3   19 1  
    20    4   20 1  
    21    4   21 1  
    22    6   22 1  
    23   15   23 1  
    24   16   24 1  
    25   17   25 1  
@<TRIPOS>SUBSTRUCTURE
     1 NI9         1

