### 
### Created by X-TOOL on Fri Sep 26 17:34:58 2014
### 

@<TRIPOS>MOLECULE
4knz_ligand
   33    34     1     0     0
SMALL
GAST_HUCK


@<TRIPOS>ATOM
      1 P         110.5120   23.5940   31.4890 P.3       1 UMC         0.2008
      2 N1        108.1480   19.8520   26.7800 N.am      1 UMC        -0.2258
      3 C2        107.3640   19.7730   25.6960 C.2       1 UMC         0.2923
      4 O2        107.5220   20.5310   24.7320 O.2       1 UMC        -0.3913
      5 N3        106.3790   18.8720   25.7020 N.am      1 UMC        -0.1851
      6 C4        106.2210   17.9160   26.6280 C.2       1 UMC         0.2063
      7 O4        105.3150   17.0830   26.5660 O.2       1 UMC        -0.3868
      8 C5        107.1690   17.8610   27.7980 C.3       1 UMC         0.0625
      9 C6        107.9080   19.1790   28.0560 C.3       1 UMC         0.0544
     10 C1'       109.3470   20.7150   26.7490 C.3       1 UMC         0.1494
     11 O1P       109.7990   22.8510   32.5800 O.co2     1 UMC        -0.5537
     12 C2'       109.1010   22.2140   26.9980 C.3       1 UMC         0.0236
     13 O2P       111.7350   24.3690   31.9550 O.co2     1 UMC        -0.5537
     14 C3'       110.4620   22.6430   27.5580 C.3       1 UMC         0.0882
     15 O3'       111.4130   22.8330   26.4860 O.3       1 UMC        -0.3890
     16 O3P       109.6000   24.4510   30.6220 O.co2     1 UMC        -0.5537
     17 C4'       110.8760   21.4430   28.3880 C.3       1 UMC         0.1149
     18 O4'       110.2850   20.2970   27.7450 O.3       1 UMC        -0.3460
     19 C5'       110.3540   21.5310   29.8170 C.3       1 UMC         0.1070
     20 O5'       111.1610   22.4660   30.5180 O.3       1 UMC        -0.2734
     21 H1        105.7093   18.9134   24.9605 H         1 UMC         0.2254
     22 H2        107.9155   17.0769   27.6033 H         1 UMC         0.0527
     23 H3        106.5934   17.6037   28.6994 H         1 UMC         0.0527
     24 H4        107.2953   19.8240   28.7029 H         1 UMC         0.0546
     25 H5        108.8690   18.9717   28.5494 H         1 UMC         0.0546
     26 H6        109.8028   20.6048   25.7540 H         1 UMC         0.0868
     27 H7        108.2944   22.3754   27.7283 H         1 UMC         0.0337
     28 H8        108.8624   22.7450   26.0647 H         1 UMC         0.0337
     29 H9        110.3822   23.5560   28.1663 H         1 UMC         0.0621
     30 H10       112.2496   23.0982   26.8497 H         1 UMC         0.2099
     31 H11       111.9725   21.3563   28.4039 H         1 UMC         0.0649
     32 H12       110.4186   20.5449   30.3002 H         1 UMC         0.0639
     33 H13       109.3074   21.8695   29.8127 H         1 UMC         0.0639
@<TRIPOS>BOND
     1    1   11 ar 
     2    1   13 ar 
     3    1   16 ar 
     4   20    1 1  
     5    2    3 am 
     6    2    9 1  
     7   10    2 1  
     8    3    4 2  
     9    3    5 am 
    10    5    6 am 
    11    6    7 2  
    12    8    6 1  
    13    9    8 1  
    14   10   12 1  
    15   18   10 1  
    16   14   12 1  
    17   14   15 1  
    18   17   14 1  
    19   17   18 1  
    20   19   17 1  
    21   19   20 1  
    22    5   21 1  
    23    8   22 1  
    24    8   23 1  
    25    9   24 1  
    26    9   25 1  
    27   10   26 1  
    28   12   27 1  
    29   12   28 1  
    30   14   29 1  
    31   15   30 1  
    32   17   31 1  
    33   19   32 1  
    34   19   33 1  
@<TRIPOS>SUBSTRUCTURE
     1 UMC         1

