### 
### Created by X-TOOL on Sat Nov 28 16:08:41 2015
### 

@<TRIPOS>MOLECULE
4oyg_ligand
   15    14     1     0     0
SMALL
GAST_HUCK


@<TRIPOS>ATOM
      1 N         -54.7550   62.6870    5.4470 N.4       1 ASP         0.2339
      2 CA        -55.1910   61.3020    5.6460 C.3       1 ASP         0.0398
      3 C         -54.6800   60.7000    6.9770 C.2       1 ASP         0.0862
      4 O         -55.1240   59.6450    7.4570 O.co2     1 ASP        -0.5642
      5 CB        -54.8510   60.4360    4.4100 C.3       1 ASP         0.0552
      6 CG        -55.9570   60.4850    3.3230 C.2       1 ASP         0.0419
      7 OD1       -55.7830   61.2040    2.3030 O.co2     1 ASP        -0.5687
      8 OD2       -57.0090   59.8130    3.4910 O.co2     1 ASP        -0.5687
      9 OXT       -53.8370   61.2940    7.6460 O.co2     1 ASP        -0.5642
     10 H         -55.1136   63.0293    4.5693 H         1 ASP         0.2011
     11 H         -53.7477   62.7239    5.4357 H         1 ASP         0.2011
     12 H         -55.1038   63.2604    6.1990 H         1 ASP         0.2011
     13 H         -56.2882   61.3240    5.7209 H         1 ASP         0.1043
     14 H         -54.7231   59.3930    4.7353 H         1 ASP         0.0505
     15 H         -53.9105   60.8015    3.9720 H         1 ASP         0.0505
@<TRIPOS>BOND
     1    1    2 1  
     2    2    3 1  
     3    2    5 1  
     4    3    4 ar 
     5    3    9 ar 
     6    5    6 1  
     7    6    7 ar 
     8    6    8 ar 
     9    1   10 1  
    10    1   11 1  
    11    1   12 1  
    12    2   13 1  
    13    5   14 1  
    14    5   15 1  
@<TRIPOS>SUBSTRUCTURE
     1 ASP         1

