### 
### Created by X-TOOL on Fri Sep 26 17:34:16 2014
### 

@<TRIPOS>MOLECULE
1qja_ligand
  143   145     1     0     0
SMALL
GAST_HUCK


@<TRIPOS>ATOM
      1 N          23.0470   20.9490   40.5100 N.4       1 MOL         0.2379
      2 CA         23.9850   22.1010   40.5960 C.3       1 MOL         0.0651
      3 C          25.3500   21.7780   40.0180 C.2       1 MOL         0.2267
      4 O          25.9990   20.8460   40.5070 O.2       1 MOL        -0.3907
      5 CB         24.1870   22.4960   42.0630 C.3       1 MOL         0.0110
      6 CG         24.4040   24.0020   42.2000 C.3       1 MOL        -0.0125
      7 CD         24.2370   24.3780   43.6600 C.3       1 MOL         0.0629
      8 NE         25.2620   23.7400   44.4810 N.pl3     1 MOL        -0.2723
      9 CZ         25.3730   23.8250   45.8060 C.cat     1 MOL         0.2882
     10 NH1        24.5260   24.5010   46.5650 N.pl3     1 MOL        -0.2849
     11 NH2        26.3890   23.2000   46.3980 N.pl3     1 MOL        -0.2849
     12 N          25.8390   22.5620   39.0850 N.am      1 MOL        -0.2610
     13 CA         27.1260   22.3130   38.4460 C.3       1 MOL         0.1313
     14 C          28.2820   22.7110   39.3550 C.2       1 MOL         0.2040
     15 O          29.3430   22.0970   39.3870 O.2       1 MOL        -0.3944
     16 CB         27.1910   23.0970   37.1270 C.3       1 MOL        -0.0101
     17 CG         26.0850   22.7960   36.1060 C.3       1 MOL        -0.0425
     18 CD1        26.3260   23.5710   34.8190 C.3       1 MOL        -0.0625
     19 CD2        25.9550   21.3060   35.8040 C.3       1 MOL        -0.0625
     20 N          28.0750   23.7680   40.1170 N.am      1 MOL        -0.2621
     21 CA         29.1120   24.2460   41.0400 C.3       1 MOL         0.1390
     22 C          28.9700   23.5590   42.3980 C.2       1 MOL         0.2059
     23 O          27.9540   22.9660   42.7600 O.2       1 MOL        -0.3942
     24 CB         29.0550   25.7400   41.1570 C.3       1 MOL         0.0163
     25 CG         27.6900   26.2990   41.4800 C.ar      1 MOL        -0.0493
     26 CD1        26.8040   26.5780   40.4470 C.ar      1 MOL        -0.0685
     27 CD2        27.3140   26.5450   42.7940 C.ar      1 MOL        -0.0685
     28 CE1        25.5580   27.1140   40.7510 C.ar      1 MOL        -0.0398
     29 CE2        26.0740   27.0880   43.0970 C.ar      1 MOL        -0.0398
     30 CZ         25.1990   27.3540   42.0670 C.ar      1 MOL         0.0805
     31 OH         23.9520   27.8910   42.3120 O.3       1 MOL        -0.3376
     32 N          30.0880   23.5510   43.1340 N.am      1 MOL        -0.2618
     33 CA         30.1090   22.8070   44.3750 C.3       1 MOL         0.1421
     34 C          30.4460   23.6110   45.5990 C.2       1 MOL         0.2061
     35 O          31.1390   24.5920   45.6060 O.2       1 MOL        -0.3942
     36 CB         31.2030   21.7020   44.2650 C.3       1 MOL         0.0427
     37 CG         30.9560   20.8130   43.0840 C.2       1 MOL         0.0561
     38 ND1        31.3410   21.1590   41.8110 N.pl3     1 MOL        -0.2623
     39 CD2        30.3310   19.6150   42.9910 C.2       1 MOL        -0.0276
     40 CE1        30.9760   20.1980   40.9770 C.2       1 MOL         0.0875
     41 NE2        30.3610   19.2510   41.6650 N.2       1 MOL        -0.3437
     42 N          29.9160   23.0770   46.6960 N.am      1 MOL        -0.2611
     43 CA         30.3410   23.6540   47.9800 C.3       1 MOL         0.1586
     44 CB         29.1660   24.0260   48.8120 C.3       1 MOL         0.1184
     45 OG         28.6670   22.7100   49.0790 O.3       1 MOL        -0.2714
     46 C          31.1410   22.4950   48.5940 C.2       1 MOL         0.2065
     47 O          31.3070   21.5390   47.8400 O.2       1 MOL        -0.3943
     48 P          26.8800   22.5530   49.7790 P.3       1 MOL         0.2010
     49 O1P        25.9470   23.4430   49.1240 O.co2     1 MOL        -0.5537
     50 O2P        27.2300   23.0520   51.1690 O.co2     1 MOL        -0.5537
     51 O3P        26.4190   21.1030   49.9730 O.co2     1 MOL        -0.5537
     52 N          31.6160   22.6470   49.7920 N.am      1 MOL        -0.2636
     53 CA         32.4650   21.6560   50.4410 C.3       1 MOL         0.1314
     54 C          31.7520   20.3320   50.6690 C.2       1 MOL         0.2064
     55 O          30.6960   20.2960   51.3290 O.2       1 MOL        -0.3942
     56 CB         32.9530   22.2140   51.7860 C.3       1 MOL        -0.0101
     57 CG         34.0770   21.4450   52.5030 C.3       1 MOL        -0.0425
     58 CD1        35.3670   21.5990   51.7070 C.3       1 MOL        -0.0625
     59 CD2        34.3090   21.9510   53.9360 C.3       1 MOL        -0.0625
     60 N          32.3230   19.2690   50.1290 N.am      1 MOL        -0.2498
     61 CA         31.7470   17.9300   50.2560 C.3       1 MOL         0.1336
     62 C          31.8860   17.4100   51.6860 C.2       1 MOL         0.2022
     63 O          32.7260   17.9160   52.4510 O.2       1 MOL        -0.3945
     64 CB         32.5210   17.0630   49.2690 C.3       1 MOL        -0.0104
     65 CG         33.5720   17.9100   48.6580 C.3       1 MOL        -0.0281
     66 CD         33.5480   19.2730   49.2860 C.3       1 MOL         0.0369
     67 N          31.0120   16.4760   52.0940 N.am      1 MOL        -0.2801
     68 CA         31.0560   15.9990   53.4780 C.3       1 MOL         0.0623
     69 C          32.4660   15.4750   53.8080 C.3       1 MOL         0.0669
     70 O          32.9760   14.8410   52.8500 O.3       1 MOL        -0.3928
     71 CB         30.0310   14.9090   53.7600 C.3       1 MOL        -0.0398
     72 H1         22.1570   21.2102   40.9047 H         1 MOL         0.2015
     73 H2         23.4258   20.1682   41.0228 H         1 MOL         0.2015
     74 H3         22.9227   20.6882   39.5443 H         1 MOL         0.2015
     75 H4         23.5524   22.9477   40.0429 H         1 MOL         0.1098
     76 H5         25.0669   21.9684   42.4597 H         1 MOL         0.0347
     77 H6         23.2956   22.2072   42.6392 H         1 MOL         0.0347
     78 H7         23.6639   24.5411   41.5904 H         1 MOL         0.0302
     79 H8         25.4177   24.2637   41.8625 H         1 MOL         0.0302
     80 H9         23.2446   24.0523   44.0049 H         1 MOL         0.0689
     81 H10        24.3208   25.4699   43.7629 H         1 MOL         0.0689
     82 H11        25.9656   23.1705   43.9895 H         1 MOL         0.2642
     83 H12        24.6611   24.5323   47.5856 H         1 MOL         0.2615
     84 H13        23.7315   24.9960   46.1353 H         1 MOL         0.2615
     85 H14        27.0646   22.6658   45.8331 H         1 MOL         0.2615
     86 H15        26.4993   23.2508   47.4208 H         1 MOL         0.2615
     87 H16        25.3083   23.3608   38.8017 H         1 MOL         0.1884
     88 H17        27.2092   21.2383   38.2266 H         1 MOL         0.0800
     89 H18        28.1572   22.8740   36.6510 H         1 MOL         0.0315
     90 H19        27.1408   24.1686   37.3704 H         1 MOL         0.0315
     91 H20        25.1314   23.1348   36.5371 H         1 MOL         0.0298
     92 H21        25.5257   23.3443   34.0992 H         1 MOL         0.0232
     93 H22        27.2968   23.2795   34.3917 H         1 MOL         0.0232
     94 H23        26.3296   24.6495   35.0356 H         1 MOL         0.0232
     95 H24        25.7812   20.7559   36.7406 H         1 MOL         0.0232
     96 H25        26.8814   20.9451   35.3333 H         1 MOL         0.0232
     97 H26        25.1087   21.1429   35.1205 H         1 MOL         0.0232
     98 H27        27.2003   24.2499   40.0652 H         1 MOL         0.1885
     99 H28        30.0943   23.9761   40.6250 H         1 MOL         0.0821
    100 H29        29.3832   26.1709   40.1996 H         1 MOL         0.0453
    101 H30        29.7478   26.0474   41.9542 H         1 MOL         0.0453
    102 H31        27.0806   26.3804   39.4177 H         1 MOL         0.0530
    103 H32        28.0020   26.3084   43.5976 H         1 MOL         0.0530
    104 H33        24.8624   27.3458   39.9525 H         1 MOL         0.0525
    105 H34        25.7990   27.2988   44.1241 H         1 MOL         0.0525
    106 H35        23.4897   28.0059   41.4901 H         1 MOL         0.2458
    107 H36        30.8981   24.0526   42.8303 H         1 MOL         0.1885
    108 H37        29.1202   22.3466   44.5176 H         1 MOL         0.0824
    109 H38        31.1921   21.0933   45.1812 H         1 MOL         0.0491
    110 H39        32.1872   22.1807   44.1545 H         1 MOL         0.0491
    111 H40        31.8333   22.0249   41.5486 H         1 MOL         0.2386
    112 H41        29.8893   19.0484   43.8094 H         1 MOL         0.0324
    113 H42        31.1529   20.1889   39.9025 H         1 MOL         0.1149
    114 H43        29.2621   22.3219   46.6498 H         1 MOL         0.1884
    115 H44        30.9765   24.5394   47.8310 H         1 MOL         0.0827
    116 H45        28.4415   24.6384   48.2552 H         1 MOL         0.0662
    117 H46        29.4601   24.5519   49.7323 H         1 MOL         0.0662
    118 H47        31.3891   23.4823   50.2928 H         1 MOL         0.1883
    119 H48        33.3356   21.4709   49.7947 H         1 MOL         0.0800
    120 H49        32.0880   22.2438   52.4648 H         1 MOL         0.0315
    121 H50        33.3146   23.2374   51.6076 H         1 MOL         0.0315
    122 H51        33.8020   20.3809   52.5469 H         1 MOL         0.0298
    123 H52        36.1770   21.0523   52.2121 H         1 MOL         0.0232
    124 H53        35.6309   22.6647   51.6389 H         1 MOL         0.0232
    125 H54        35.2246   21.1911   50.6954 H         1 MOL         0.0232
    126 H55        33.3816   21.8431   54.5176 H         1 MOL         0.0232
    127 H56        34.6028   23.0107   53.9077 H         1 MOL         0.0232
    128 H57        35.1085   21.3613   54.4082 H         1 MOL         0.0232
    129 H58        30.6810   17.9489   49.9853 H         1 MOL         0.0802
    130 H59        31.8431   16.6855   48.4893 H         1 MOL         0.0313
    131 H60        32.9821   16.2148   49.7961 H         1 MOL         0.0313
    132 H61        33.3865   18.0014   47.5776 H         1 MOL         0.0287
    133 H62        34.5565   17.4481   48.8232 H         1 MOL         0.0287
    134 H63        34.4446   19.4334   49.9027 H         1 MOL         0.0524
    135 H64        33.4880   20.0557   48.5155 H         1 MOL         0.0524
    136 H65        30.3349   16.1082   51.4566 H         1 MOL         0.1855
    137 H66        30.8356   16.8517   54.1370 H         1 MOL         0.0576
    138 H67        32.4000   14.8066   54.6791 H         1 MOL         0.0580
    139 H68        33.1135   16.3305   54.0504 H         1 MOL         0.0580
    140 H69        33.8418   14.5373   53.0964 H         1 MOL         0.2095
    141 H70        30.1119   14.5926   54.8104 H         1 MOL         0.0253
    142 H71        30.2208   14.0481   53.1021 H         1 MOL         0.0253
    143 H72        29.0198   15.2988   53.5713 H         1 MOL         0.0253
@<TRIPOS>BOND
     1    1    2 1  
     2    2    3 1  
     3    2    5 1  
     4    3    4 2  
     5    3   12 am 
     6    5    6 1  
     7    6    7 1  
     8    7    8 1  
     9    8    9 ar 
    10    9   10 ar 
    11    9   11 ar 
    12   12   13 1  
    13   13   14 1  
    14   13   16 1  
    15   14   15 2  
    16   14   20 am 
    17   16   17 1  
    18   17   18 1  
    19   17   19 1  
    20   20   21 1  
    21   21   22 1  
    22   21   24 1  
    23   22   23 2  
    24   22   32 am 
    25   24   25 1  
    26   25   26 ar 
    27   25   27 ar 
    28   26   28 ar 
    29   27   29 ar 
    30   28   30 ar 
    31   29   30 ar 
    32   30   31 1  
    33   32   33 1  
    34   33   34 1  
    35   33   36 1  
    36   34   35 2  
    37   34   42 am 
    38   36   37 1  
    39   37   38 1  
    40   37   39 2  
    41   38   40 1  
    42   39   41 1  
    43   40   41 2  
    44   42   43 1  
    45   43   44 1  
    46   43   46 1  
    47   44   45 1  
    48   45   48 1  
    49   46   47 2  
    50   46   52 am 
    51   48   49 ar 
    52   48   50 ar 
    53   48   51 ar 
    54   52   53 1  
    55   53   54 1  
    56   53   56 1  
    57   54   55 2  
    58   54   60 am 
    59   56   57 1  
    60   57   58 1  
    61   57   59 1  
    62   60   61 1  
    63   60   66 1  
    64   61   62 1  
    65   61   64 1  
    66   62   63 2  
    67   62   67 am 
    68   64   65 1  
    69   65   66 1  
    70   67   68 1  
    71   68   69 1  
    72   68   71 1  
    73   69   70 1  
    74    1   72 1  
    75    1   73 1  
    76    1   74 1  
    77    2   75 1  
    78    5   76 1  
    79    5   77 1  
    80    6   78 1  
    81    6   79 1  
    82    7   80 1  
    83    7   81 1  
    84    8   82 1  
    85   10   83 1  
    86   10   84 1  
    87   11   85 1  
    88   11   86 1  
    89   12   87 1  
    90   13   88 1  
    91   16   89 1  
    92   16   90 1  
    93   17   91 1  
    94   18   92 1  
    95   18   93 1  
    96   18   94 1  
    97   19   95 1  
    98   19   96 1  
    99   19   97 1  
   100   20   98 1  
   101   21   99 1  
   102   24  100 1  
   103   24  101 1  
   104   26  102 1  
   105   27  103 1  
   106   28  104 1  
   107   29  105 1  
   108   31  106 1  
   109   32  107 1  
   110   33  108 1  
   111   36  109 1  
   112   36  110 1  
   113   38  111 1  
   114   39  112 1  
   115   40  113 1  
   116   42  114 1  
   117   43  115 1  
   118   44  116 1  
   119   44  117 1  
   120   52  118 1  
   121   53  119 1  
   122   56  120 1  
   123   56  121 1  
   124   57  122 1  
   125   58  123 1  
   126   58  124 1  
   127   58  125 1  
   128   59  126 1  
   129   59  127 1  
   130   59  128 1  
   131   61  129 1  
   132   64  130 1  
   133   64  131 1  
   134   65  132 1  
   135   65  133 1  
   136   66  134 1  
   137   66  135 1  
   138   67  136 1  
   139   68  137 1  
   140   69  138 1  
   141   69  139 1  
   142   70  140 1  
   143   71  141 1  
   144   71  142 1  
   145   71  143 1  
@<TRIPOS>SUBSTRUCTURE
     1 MOL         1

