### 
### Created by X-TOOL on Fri Sep 26 17:34:16 2014
### 

@<TRIPOS>MOLECULE
1qpf_ligand
  145   150     1     0     0
SMALL
GAST_HUCK


@<TRIPOS>ATOM
      1 H1         23.7268   33.4316  135.8731 H         1 MOL         0.0820
      2 H2         22.8137   35.6680  135.9646 H         1 MOL         0.0314
      3 H3         24.5146   35.8039  135.4032 H         1 MOL         0.0314
      4 H4         23.8829   37.5573  137.0482 H         1 MOL         0.0268
      5 H5         25.2310   36.5150  137.6164 H         1 MOL         0.0268
      6 H6         22.2841   36.2666  138.3888 H         1 MOL         0.0285
      7 H7         23.6175   36.8725  139.4288 H         1 MOL         0.0285
      8 H8         23.0386   34.4804  139.8846 H         1 MOL         0.0526
      9 H9         24.7322   34.6915  139.3244 H         1 MOL         0.0526
     10 H10        23.9564   31.0767  139.1654 H         1 MOL         0.0336
     11 H11        24.8167   29.4326  140.6892 H         1 MOL         0.0294
     12 H12        23.3170   29.4736  141.6771 H         1 MOL         0.0294
     13 H13        25.4476   31.6494  141.4532 H         1 MOL         0.0622
     14 H14        22.8368   31.5530  143.0514 H         1 MOL         0.0646
     15 H15        23.2028   34.0336  143.4087 H         1 MOL         0.0622
     16 H16        24.8654   34.3604  141.6534 H         1 MOL         0.0295
     17 H17        26.0088   33.2799  142.5204 H         1 MOL         0.0295
     18 H18        26.4217   35.7697  142.5844 H         1 MOL         0.0320
     19 H19        26.3036   34.1652  145.1459 H         1 MOL         0.0416
     20 H20        26.9202   35.8515  145.0912 H         1 MOL         0.0416
     21 H21        27.7524   32.4152  144.4947 H         1 MOL         0.0265
     22 H22        30.5199   33.2559  143.5114 H         1 MOL         0.0599
     23 H23        31.1357   33.3330  140.9236 H         1 MOL         0.0520
     24 H24        29.6266   34.2392  141.2817 H         1 MOL         0.0520
     25 H25        29.7800   32.0019  139.1921 H         1 MOL         0.0624
     26 H26        27.5125   32.6698  140.1490 H         1 MOL         0.0375
     27 H27        28.0686   33.3457  137.2050 H         1 MOL         0.0802
     28 H28        28.6920   31.6233  136.0897 H         1 MOL         0.0246
     29 H29        28.1309   28.7337  136.9150 H         1 MOL         0.0375
     30 H30        29.7230   30.0796  134.6671 H         1 MOL         0.0308
     31 H31        28.0688   29.3901  134.5453 H         1 MOL         0.0308
     32 H32        28.9690   27.1307  134.9315 H         1 MOL         0.0627
     33 H33        31.7303   28.5000  134.8950 H         1 MOL         0.0672
     34 H34        31.8851   27.8399  137.2379 H         1 MOL         0.0296
     35 H35        30.2722   27.0527  137.1635 H         1 MOL         0.0296
     36 H36        30.0698   29.1685  138.3028 H         1 MOL         0.0283
     37 H37        30.9028   30.0236  136.9606 H         1 MOL         0.0283
     38 H38        21.9151   29.9200  138.3478 H         1 MOL         0.0232
     39 H39        21.7673   29.0727  139.9247 H         1 MOL         0.0232
     40 H40        23.1768   28.7483  138.8594 H         1 MOL         0.0232
     41 H41        24.0422   36.3902  142.9669 H         1 MOL         0.0234
     42 H42        25.1587   37.1110  144.1754 H         1 MOL         0.0234
     43 H43        24.1495   35.6927  144.6187 H         1 MOL         0.0234
     44 H44        30.0524   35.0152  143.2918 H         1 MOL         0.0378
     45 H45        29.2921   36.1942  144.4136 H         1 MOL         0.0378
     46 H46        28.6740   36.0237  142.7356 H         1 MOL         0.0378
     47 H47        29.3434   30.4908  144.0273 H         1 MOL         0.0304
     48 H48        30.1919   31.5083  145.2404 H         1 MOL         0.0304
     49 H49        31.6648   29.7596  144.3468 H         1 MOL         0.0233
     50 H50        32.2526   31.3954  143.8937 H         1 MOL         0.0233
     51 H51        31.4041   30.3779  142.6806 H         1 MOL         0.0233
     52 H52        28.0676   35.0539  140.6023 H         1 MOL         0.0236
     53 H53        26.6036   34.8955  139.5737 H         1 MOL         0.0236
     54 H54        28.1741   35.3591  138.8354 H         1 MOL         0.0236
     55 H55        26.8920   29.3835  138.4069 H         1 MOL         0.0376
     56 H56        25.6617   30.6861  138.5351 H         1 MOL         0.0376
     57 H57        27.0026   30.5965  139.7271 H         1 MOL         0.0376
     58 H58        26.5466   29.1912  143.9486 H         1 MOL         0.0524
     59 H59        27.0732   30.1101  142.4978 H         1 MOL         0.0524
     60 H60        25.8847   28.7735  142.3318 H         1 MOL         0.0524
     61 H61        23.4711   32.1474  146.3480 H         1 MOL         0.0524
     62 H62        22.6307   31.7430  144.8129 H         1 MOL         0.0524
     63 H63        22.5791   33.4218  145.4498 H         1 MOL         0.0524
     64 H64        28.7640   27.7708  131.3871 H         1 MOL         0.0524
     65 H65        28.0128   28.7579  132.6863 H         1 MOL         0.0524
     66 H66        27.9773   26.9648  132.7864 H         1 MOL         0.0524
     67 H67        33.6649   27.8771  135.2661 H         1 MOL         0.0481
     68 H68        31.9402   23.9404  135.3797 H         1 MOL         0.0430
     69 H69        35.8263   26.9803  136.0356 H         1 MOL         0.0528
     70 H70        33.7022   21.9274  136.2450 H         1 MOL         0.0273
     71 H71        36.2715   21.7903  137.0530 H         1 MOL         0.0928
     72 H72        37.4184   25.2951  137.8157 H         1 MOL         0.0596
     73 H73        37.6128   25.5384  136.0466 H         1 MOL         0.0596
     74 H74        39.5371   24.3777  137.0103 H         1 MOL         0.0255
     75 H75        38.6505   23.3250  135.8561 H         1 MOL         0.0255
     76 H76        38.4562   23.0816  137.6252 H         1 MOL         0.0255
     77 H77        21.4236   30.7671  141.8211 H         1 MOL         0.2100
     78 H78        31.1922   33.8142  138.7500 H         1 MOL         0.2100
     79 C1         25.6070   33.8660  136.8350 C.2       1 MOL         0.2621
     80 C2         24.1140   34.1050  136.6520 C.3       1 MOL         0.1459
     81 C3         23.8680   35.5600  136.2590 C.3       1 MOL        -0.0106
     82 C4         24.1580   36.5440  137.3760 C.3       1 MOL        -0.0469
     83 C5         23.3580   36.1830  138.6120 C.3       1 MOL        -0.0320
     84 C6         23.6740   34.7650  139.0330 C.3       1 MOL         0.0376
     85 C8         22.4590   32.9490  137.9870 C.2       1 MOL         0.2778
     86 C9         21.7880   32.6670  139.1940 C.2       1 MOL         0.2928
     87 C10        22.2730   31.7870  140.3860 C.3       1 MOL         0.2516
     88 C11        23.2450   30.6470  139.8860 C.3       1 MOL         0.0194
     89 C12        24.0140   30.0770  141.0770 C.3       1 MOL        -0.0176
     90 C13        24.6460   31.1240  141.9930 C.3       1 MOL         0.0870
     91 C14        23.5660   32.1220  142.4560 C.3       1 MOL         0.1119
     92 C15        24.0310   33.3160  143.3130 C.3       1 MOL         0.0871
     93 C16        25.2090   34.0250  142.6430 C.3       1 MOL        -0.0198
     94 C17        25.8260   35.2380  143.3410 C.3       1 MOL        -0.0329
     95 C18        26.7720   34.9300  144.5090 C.3       1 MOL        -0.0252
     96 C19        28.1350   34.4170  144.0590 C.2       1 MOL        -0.0806
     97 C20        28.4530   33.1080  144.0310 C.2       1 MOL        -0.0883
     98 C21        29.7190   32.5100  143.4010 C.3       1 MOL         0.0381
     99 C22        29.6110   32.1830  141.9140 C.2       1 MOL         0.1141
    100 C23        30.0370   33.2800  140.9330 C.3       1 MOL         0.0489
    101 C24        29.5480   33.0330  139.4970 C.3       1 MOL         0.0778
    102 C25        28.0190   33.2690  139.3780 C.3       1 MOL         0.0236
    103 C26        27.4960   32.8240  137.9860 C.3       1 MOL         0.1176
    104 C27        27.5690   31.3220  137.7910 C.2       1 MOL        -0.0504
    105 C28        28.3630   30.8700  136.8040 C.2       1 MOL        -0.1031
    106 C29        28.8690   29.4580  136.5400 C.3       1 MOL        -0.0325
    107 C30        29.0530   29.2840  135.0250 C.3       1 MOL        -0.0178
    108 C31        29.6470   27.9330  134.6050 C.3       1 MOL         0.0897
    109 C32        31.0220   27.7450  135.2670 C.3       1 MOL         0.1050
    110 C33        30.8820   27.8880  136.7890 C.3       1 MOL        -0.0188
    111 C34        30.2240   29.1960  137.2140 C.3       1 MOL        -0.0442
    112 C35        22.4720   29.5180  139.2070 C.3       1 MOL        -0.0584
    113 C36        24.7170   36.1730  143.8080 C.3       1 MOL        -0.0606
    114 C37        29.1050   35.4860  143.5930 C.3       1 MOL        -0.0396
    115 C38        30.1250   31.2510  144.1730 C.3       1 MOL        -0.0342
    116 C39        31.4530   30.6550  143.7440 C.3       1 MOL        -0.0618
    117 C41        27.6930   34.7490  139.6140 C.3       1 MOL        -0.0555
    118 C42        26.7240   30.4370  138.6750 C.3       1 MOL        -0.0376
    119 C43        26.2270   29.5960  142.9770 C.3       1 MOL         0.0369
    120 C44        23.1980   32.5180  145.3490 C.3       1 MOL         0.0369
    121 C45        28.5700   27.8350  132.4680 C.3       1 MOL         0.0369
    122 C58        32.6890   25.9580  135.2800 C.ar      1 MOL         0.0735
    123 C59        33.7750   26.8170  135.4640 C.ar      1 MOL        -0.0453
    124 C60        32.7950   24.5900  135.5290 C.ar      1 MOL        -0.0492
    125 C61        34.0180   24.0590  135.9750 C.ar      1 MOL        -0.0376
    126 C62        34.9740   26.3260  135.8920 C.ar      1 MOL        -0.0484
    127 C63        35.0700   24.9520  136.1400 C.ar      1 MOL         0.0569
    128 C64        34.3820   22.7760  136.3060 C.2       1 MOL        -0.0678
    129 N65        36.1570   24.1380  136.6060 N.pl3     1 MOL        -0.2705
    130 C66        35.7110   22.6660  136.7290 C.2       1 MOL         0.0217
    131 C67        37.4500   24.7920  136.8380 C.3       1 MOL         0.0475
    132 C68        38.6000   23.8300  136.8320 C.3       1 MOL        -0.0387
    133 N7         23.4110   33.8760  137.9030 N.am      1 MOL        -0.2402
    134 O1         26.0960   33.0830  137.8540 O.3       1 MOL        -0.2597
    135 O2         26.4090   34.3920  136.0680 O.2       1 MOL        -0.3676
    136 O3         22.1140   32.3190  136.9860 O.2       1 MOL        -0.3605
    137 O4         20.6860   33.1980  139.3550 O.2       1 MOL        -0.2853
    138 O5         22.9080   32.6690  141.3090 O.3       1 MOL        -0.3394
    139 O6         21.1380   31.3050  141.0920 O.3       1 MOL        -0.3640
    140 O7         25.1660   30.5150  143.1740 O.3       1 MOL        -0.3771
    141 O8         24.3760   32.8300  144.6220 O.3       1 MOL        -0.3771
    142 O9         29.2480   31.0610  141.5380 O.2       1 MOL        -0.3898
    143 O10        30.2580   33.9670  138.6700 O.3       1 MOL        -0.3889
    144 O11        29.8230   27.8500  133.1810 O.3       1 MOL        -0.3767
    145 O12        31.4700   26.4410  134.9060 O.3       1 MOL        -0.3209
@<TRIPOS>BOND
     1   80    1 1  
     2   81    2 1  
     3   81    3 1  
     4   82    4 1  
     5   82    5 1  
     6   83    6 1  
     7   83    7 1  
     8   84    8 1  
     9   84    9 1  
    10   88   10 1  
    11   89   11 1  
    12   89   12 1  
    13   90   13 1  
    14   91   14 1  
    15   92   15 1  
    16   93   16 1  
    17   93   17 1  
    18   94   18 1  
    19   95   19 1  
    20   95   20 1  
    21   97   21 1  
    22   98   22 1  
    23  100   23 1  
    24  100   24 1  
    25  101   25 1  
    26  102   26 1  
    27  103   27 1  
    28  105   28 1  
    29  106   29 1  
    30  107   30 1  
    31  107   31 1  
    32  108   32 1  
    33  109   33 1  
    34  110   34 1  
    35  110   35 1  
    36  111   36 1  
    37  111   37 1  
    38  112   38 1  
    39  112   39 1  
    40  112   40 1  
    41  113   41 1  
    42  113   42 1  
    43  113   43 1  
    44  114   44 1  
    45  114   45 1  
    46  114   46 1  
    47  115   47 1  
    48  115   48 1  
    49  116   49 1  
    50  116   50 1  
    51  116   51 1  
    52  117   52 1  
    53  117   53 1  
    54  117   54 1  
    55  118   55 1  
    56  118   56 1  
    57  118   57 1  
    58  119   58 1  
    59  119   59 1  
    60  119   60 1  
    61  120   61 1  
    62  120   62 1  
    63  120   63 1  
    64  121   64 1  
    65  121   65 1  
    66  121   66 1  
    67  123   67 1  
    68  124   68 1  
    69  126   69 1  
    70  128   70 1  
    71  130   71 1  
    72  131   72 1  
    73  131   73 1  
    74  132   74 1  
    75  132   75 1  
    76  132   76 1  
    77  139   77 1  
    78  143   78 1  
    79   79  135 2  
    80   79  134 1  
    81   80   79 1  
    82  133   80 1  
    83   80   81 1  
    84   81   82 1  
    85   83   82 1  
    86   84   83 1  
    87  133   84 1  
    88   85  133 am 
    89   85  136 2  
    90   86   85 2  
    91   86  137 2  
    92   87   86 1  
    93   87  139 1  
    94  138   87 1  
    95   88   87 1  
    96   88  112 1  
    97   89   88 1  
    98   90   89 1  
    99  140   90 1  
   100   90   91 1  
   101   91  138 1  
   102   91   92 1  
   103   92  141 1  
   104   92   93 1  
   105   93   94 1  
   106   94  113 1  
   107   94   95 1  
   108   95   96 1  
   109   96  114 1  
   110   96   97 2  
   111   97   98 1  
   112   98  115 1  
   113   98   99 1  
   114   99  142 2  
   115   99  100 1  
   116  100  101 1  
   117  101  143 1  
   118  101  102 1  
   119  102  117 1  
   120  103  102 1  
   121  134  103 1  
   122  103  104 1  
   123  104  118 1  
   124  104  105 2  
   125  105  106 1  
   126  106  111 1  
   127  106  107 1  
   128  107  108 1  
   129  108  144 1  
   130  108  109 1  
   131  109  145 1  
   132  110  109 1  
   133  111  110 1  
   134  145  122 1  
   135  122  124 ar 
   136  122  123 ar 
   137  123  126 ar 
   138  126  127 ar 
   139  127  129 1  
   140  125  127 ar 
   141  125  128 1  
   142  124  125 ar 
   143  128  130 2  
   144  129  130 1  
   145  129  131 1  
   146  131  132 1  
   147  144  121 1  
   148  115  116 1  
   149  141  120 1  
   150  140  119 1  
@<TRIPOS>SUBSTRUCTURE
     1 MOL         1

