### 
### Created by X-TOOL on Fri Sep 26 17:34:32 2014
### 

@<TRIPOS>MOLECULE
2aoh_ligand
  160   162     1     0     0
SMALL
GAST_HUCK


@<TRIPOS>ATOM
      1 N          29.4920   27.7650   16.1540 N.4       1 VAL301      0.2381
      2 CA         28.8420   27.7500   17.4710 C.3       1 VAL301      0.0673
      3 C          27.5500   28.5200   17.4290 C.2       1 VAL301      0.2270
      4 O          26.9430   28.9510   18.4070 O.2       1 VAL301     -0.3907
      5 CB         29.8990   28.1820   18.5000 C.3       1 VAL301      0.0139
      6 CG1        29.5450   29.3960   19.3310 C.3       1 VAL301     -0.0553
      7 CG2        30.1500   26.9720   19.4060 C.3       1 VAL301     -0.0553
      8 N          27.0200   28.6420   16.2150 N.am      1 VAL301     -0.2588
      9 CA         25.5670   28.8200   16.1040 C.3       1 VAL301      0.1540
     10 C          24.8490   27.5430   16.4720 C.2       1 VAL301      0.2063
     11 O          25.0540   26.5070   15.8280 O.2       1 VAL301     -0.3943
     12 CB         25.2230   29.2560   14.6630 C.3       1 VAL301      0.0843
     13 OG         23.8610   29.0670   14.3740 O.3       1 VAL301     -0.3903
     14 N          23.9960   27.5350   17.5010 N.am      1 VAL301     -0.2619
     15 CA         23.1720   26.3690   17.8210 C.3       1 VAL301      0.1404
     16 C          21.7040   26.6870   17.6130 C.2       1 VAL301      0.2059
     17 O          21.2420   27.8270   17.8510 O.2       1 VAL301     -0.3942
     18 CB         23.3180   25.9040   19.2620 C.3       1 VAL301      0.0214
     19 CG         24.5100   24.9630   19.4510 C.ar      1 VAL301     -0.0386
     20 CD1        24.4380   23.6180   19.1470 C.ar      1 VAL301     -0.0601
     21 CD2        25.7150   25.4960   19.8990 C.ar      1 VAL301     -0.0601
     22 CE1        25.5260   22.7800   19.3060 C.ar      1 VAL301     -0.0686
     23 CE2        26.7890   24.6440   20.1140 C.ar      1 VAL301     -0.0686
     24 CZ         26.7210   23.2990   19.8000 C.ar      1 VAL301     -0.0687
     25 N          20.9580   25.7280   17.0750 N.am      1 VAL301     -0.2623
     26 CA         19.6140   25.9650   16.5100 C.3       1 VAL301      0.1509
     27 C          18.7580   24.7510   16.8420 C.2       1 VAL301      0.2527
     28 O          18.9640   23.7130   16.1640 O.2       1 VAL301     -0.3326
     29 CB         19.6410   26.1690   14.9860 C.3       1 VAL301      0.0764
     30 CG         20.4920   27.4170   14.7090 C.2       1 VAL301      0.1778
     31 OD1        20.0380   28.5290   14.9230 O.2       1 VAL301     -0.3970
     32 ND2        21.7750   27.1780   14.3860 N.am      1 VAL301     -0.3007
     33 N          17.9120   24.8570   17.8460 N.2       1 VAL301     -0.2172
     34 CA         17.0960   23.7440   18.3060 C.3       1 VAL301      0.1105
     35 C          15.6380   23.8280   17.9770 C.3       1 VAL301     -0.0040
     36 CB         17.2820   23.7760   19.8480 C.3       1 VAL301      0.0093
     37 CG         18.7170   23.5560   20.2800 C.ar      1 VAL301     -0.0408
     38 CD1        19.4420   24.5240   20.9530 C.ar      1 VAL301     -0.0603
     39 CD2        19.3790   22.3660   20.0080 C.ar      1 VAL301     -0.0603
     40 CE1        20.7580   24.3220   21.3220 C.ar      1 VAL301     -0.0686
     41 CE2        20.6770   22.1490   20.3700 C.ar      1 VAL301     -0.0686
     42 CZ         21.3810   23.1260   21.0460 C.ar      1 VAL301     -0.0687
     43 N          15.2770   23.5550   16.6270 N.4       1 VAL301      0.2558
     44 CA         14.0450   22.8080   16.3590 C.3       1 VAL301      0.0688
     45 C          14.1260   21.3670   16.8450 C.2       1 VAL301      0.2268
     46 O          15.1560   20.6800   16.7900 O.2       1 VAL301     -0.3907
     47 CB         13.8730   22.8990   14.8320 C.3       1 VAL301      0.0128
     48 CG         15.1980   23.3040   14.2940 C.3       1 VAL301     -0.0052
     49 CD         15.8490   24.0930   15.3870 C.3       1 VAL301     -0.0294
     50 N          12.9810   20.9200   17.3530 N.am      1 VAL301     -0.2609
     51 CA         12.9260   19.5250   17.8150 C.3       1 VAL301      0.1331
     52 C          11.5200   18.9800   17.6690 C.2       1 VAL301      0.2041
     53 O          10.5420   19.5880   18.1240 O.2       1 VAL301     -0.3944
     54 CB         13.4450   19.4620   19.2620 C.3       1 VAL301      0.0045
     55 CG         13.3980   18.1080   19.9700 C.3       1 VAL301      0.0412
     56 CD         12.0490   17.8090   20.6250 C.2       1 VAL301      0.1737
     57 OE1        11.3960   18.6950   21.1420 O.2       1 VAL301     -0.3973
     58 NE2        11.5820   16.5900   20.4980 N.am      1 VAL301     -0.3009
     59 N          11.4120   17.7450   17.1860 N.am      1 VAL301     -0.2635
     60 CA         10.1540   16.9930   17.1200 C.3       1 VAL301      0.1335
     61 C          10.3600   15.5350   17.4940 C.2       1 VAL301      0.2042
     62 O          11.4950   15.0810   17.5070 O.2       1 VAL301     -0.3944
     63 CB          9.5710   17.0270   15.6930 C.3       1 VAL301     -0.0037
     64 CG1        10.4490   16.3260   14.6680 C.3       1 VAL301     -0.0491
     65 CG2         9.3030   18.4640   15.2890 C.3       1 VAL301     -0.0582
     66 CD1         9.8550   16.0270   13.3220 C.3       1 VAL301     -0.0648
     67 N           9.3030   14.7990   17.7870 N.am      1 VAL301     -0.2613
     68 CA          9.4120   13.3560   17.9820 C.3       1 VAL301      0.1565
     69 C           9.4180   12.7160   16.5990 C.2       1 VAL301      0.2065
     70 O           8.4900   13.0410   15.8630 O.2       1 VAL301     -0.3943
     71 CB          8.2340   12.8030   18.7990 C.3       1 VAL301      0.0924
     72 OG1         8.3890   13.4380   20.0800 O.3       1 VAL301     -0.3874
     73 CG2         8.3190   11.2900   18.8960 C.3       1 VAL301     -0.0346
     74 N          10.4330   11.9040   16.3590 N.am      1 VAL301     -0.2626
     75 CA         10.6910   11.3120   15.0620 C.3       1 VAL301      0.1392
     76 C           9.4950   10.4950   14.5750 C.2       1 VAL301      0.2568
     77 O           9.3430    9.3510   15.0030 O.2       1 VAL301     -0.3680
     78 CB         11.9590   10.4660   15.1220 C.3       1 VAL301     -0.0230
     79 O1          8.6330   11.0112   13.7036 O.3       1 VAL301     -0.2910
     80 H1         30.3547   27.2457   16.1992 H         1 VAL301      0.2015
     81 H2         29.6866   28.7171   15.8861 H         1 VAL301      0.2015
     82 H3         28.8808   27.3425   15.4728 H         1 VAL301      0.2015
     83 H4         28.5713   26.7110   17.7103 H         1 VAL301      0.1101
     84 H5         30.8246   28.4193   17.9550 H         1 VAL301      0.0376
     85 H6         30.3664   29.6145   20.0293 H         1 VAL301      0.0236
     86 H7         28.6245   29.1959   19.8989 H         1 VAL301      0.0236
     87 H8         29.3869   30.2601   18.6690 H         1 VAL301      0.0236
     88 H9         30.4059   26.0984   18.7885 H         1 VAL301      0.0236
     89 H10        29.2425   26.7558   19.9889 H         1 VAL301      0.0236
     90 H11        30.9818   27.1931   20.0910 H         1 VAL301      0.0236
     91 H12        27.5968   28.6132   15.3986 H         1 VAL301      0.1885
     92 H13        25.2502   29.6115   16.7991 H         1 VAL301      0.0823
     93 H14        25.8228   28.6617   13.9580 H         1 VAL301      0.0606
     94 H15        25.4678   30.3219   14.5450 H         1 VAL301      0.0606
     95 H16        23.6430   28.1473   14.4688 H         1 VAL301      0.2097
     96 H17        23.9184   28.3530   18.0710 H         1 VAL301      0.1885
     97 H18        23.4670   25.5477   17.1514 H         1 VAL301      0.0823
     98 H19        22.3998   25.3754   19.5579 H         1 VAL301      0.0474
     99 H20        23.4575   26.7851   19.9056 H         1 VAL301      0.0474
    100 H21        23.5057   23.2092   18.7746 H         1 VAL301      0.0557
    101 H22        25.8131   26.5607   20.0773 H         1 VAL301      0.0557
    102 H23        25.4502   21.7297   19.0489 H         1 VAL301      0.0599
    103 H24        27.7034   25.0424   20.5384 H         1 VAL301      0.0599
    104 H25        27.5845   22.6580   19.9361 H         1 VAL301      0.0559
    105 H26        21.3253   24.7982   17.0514 H         1 VAL301      0.1883
    106 H27        19.1816   26.8620   16.9774 H         1 VAL301      0.0811
    107 H28        18.6190   26.3185   14.6077 H         1 VAL301      0.0549
    108 H29        20.0886   25.2916   14.4963 H         1 VAL301      0.0549
    109 H30        22.3920   27.9405   14.1915 H         1 VAL301      0.1814
    110 H31        22.1123   26.2377   14.3402 H         1 VAL301      0.1814
    111 H32        17.4891   22.8060   17.8870 H         1 VAL301      0.0632
    112 H33        15.2995   24.8473   18.2143 H         1 VAL301      0.0838
    113 H34        15.1083   23.1073   18.6173 H         1 VAL301      0.0838
    114 H35        16.6582   22.9863   20.2920 H         1 VAL301      0.0449
    115 H36        16.9514   24.7570   20.2199 H         1 VAL301      0.0449
    116 H37        18.9644   25.4660   21.1972 H         1 VAL301      0.0557
    117 H38        18.8444   21.5792   19.4882 H         1 VAL301      0.0557
    118 H39        21.3024   25.1090   21.8312 H         1 VAL301      0.0599
    119 H40        21.1563   21.2077   20.1264 H         1 VAL301      0.0599
    120 H41        22.4061   22.9541   21.3538 H         1 VAL301      0.0559
    121 H42        15.8747   22.7436   16.6079 H         1 VAL301      0.2056
    122 H43        13.1958   23.2947   16.8609 H         1 VAL301      0.1100
    123 H44        13.1112   23.6505   14.5773 H         1 VAL301      0.0347
    124 H45        13.5763   21.9224   14.4219 H         1 VAL301      0.0347
    125 H46        15.8007   22.4171   14.0486 H         1 VAL301      0.0320
    126 H47        15.0742   23.9238   13.3937 H         1 VAL301      0.0320
    127 H48        16.9398   23.9522   15.3700 H         1 VAL301      0.0815
    128 H49        15.6157   25.1631   15.2846 H         1 VAL301      0.0815
    129 H50        12.1804   21.5155   17.4189 H         1 VAL301      0.1885
    130 H51        13.5916   18.9173   17.1844 H         1 VAL301      0.0801
    131 H52        12.8461   20.1664   19.8579 H         1 VAL301      0.0337
    132 H53        14.4944   19.7915   19.2504 H         1 VAL301      0.0337
    133 H54        14.1739   18.0955   20.7496 H         1 VAL301      0.0504
    134 H55        13.6082   17.3210   19.2308 H         1 VAL301      0.0504
    135 H56        10.7036   16.3458   20.9088 H         1 VAL301      0.1814
    136 H57        12.1043   15.9048   19.9904 H         1 VAL301      0.1814
    137 H58        12.2412   17.3010   16.8463 H         1 VAL301      0.1883
    138 H59         9.4362   17.4483   17.8182 H         1 VAL301      0.0803
    139 H60         8.6083   16.4954   15.7155 H         1 VAL301      0.0345
    140 H61        10.7643   15.3680   15.1071 H         1 VAL301      0.0267
    141 H62        11.3313   16.9617   14.5028 H         1 VAL301      0.0267
    142 H63         8.6672   18.9454   16.0467 H         1 VAL301      0.0235
    143 H64         8.7909   18.4818   14.3156 H         1 VAL301      0.0235
    144 H65        10.2564   19.0071   15.2118 H         1 VAL301      0.0235
    145 H66        10.6044   15.5224   12.6944 H         1 VAL301      0.0230
    146 H67         9.5463   16.9666   12.8405 H         1 VAL301      0.0230
    147 H68         8.9792   15.3728   13.4448 H         1 VAL301      0.0230
    148 H69         8.4096   15.2392   17.8771 H         1 VAL301      0.1884
    149 H70        10.3514   13.1259   18.5060 H         1 VAL301      0.0826
    150 H71         7.2732   13.0829   18.3424 H         1 VAL301      0.0639
    151 H72         8.3295   14.3803   19.9744 H         1 VAL301      0.2101
    152 H73         7.4692   10.9119   19.4833 H         1 VAL301      0.0257
    153 H74         9.2605   11.0065   19.3891 H         1 VAL301      0.0257
    154 H75         8.2888   10.8555   17.8859 H         1 VAL301      0.0257
    155 H76        11.0549   11.6871   17.1114 H         1 VAL301      0.1884
    156 H77        10.8575   12.1262   14.3414 H         1 VAL301      0.0813
    157 H78        12.1490   10.0197   14.1347 H         1 VAL301      0.0278
    158 H79        11.8318    9.6670   15.8672 H         1 VAL301      0.0278
    159 H80        12.8105   11.1013   15.4072 H         1 VAL301      0.0278
    160 H81         7.7655   11.0288   14.0905 H         1 VAL301      0.2540
@<TRIPOS>BOND
     1    2    1 1  
     2    2    5 1  
     3    3    2 1  
     4    3    4 2  
     5    5    7 1  
     6    5    6 1  
     7    9    8 1  
     8    9   12 1  
     9   10    9 1  
    10   10   11 2  
    11   12   13 1  
    12    8    3 am 
    13   15   14 1  
    14   15   18 1  
    15   16   15 1  
    16   16   17 2  
    17   18   19 1  
    18   19   20 ar 
    19   19   21 ar 
    20   21   23 ar 
    21   23   24 ar 
    22   22   24 ar 
    23   20   22 ar 
    24   14   10 am 
    25   26   25 1  
    26   26   29 1  
    27   27   26 1  
    28   27   28 2  
    29   29   30 1  
    30   30   32 am 
    31   30   31 2  
    32   25   16 am 
    33   44   45 1  
    34   44   47 1  
    35   43   44 1  
    36   43   49 1  
    37   49   48 1  
    38   48   47 1  
    39   45   46 2  
    40   50   51 1  
    41   51   54 1  
    42   51   52 1  
    43   52   53 2  
    44   54   55 1  
    45   55   56 1  
    46   56   58 am 
    47   56   57 2  
    48   45   50 am 
    49   59   60 1  
    50   60   63 1  
    51   60   61 1  
    52   61   62 2  
    53   63   65 1  
    54   63   64 1  
    55   64   66 1  
    56   52   59 am 
    57   67   68 1  
    58   68   71 1  
    59   68   69 1  
    60   69   70 2  
    61   71   73 1  
    62   71   72 1  
    63   61   67 am 
    64   74   75 1  
    65   75   78 1  
    66   75   76 1  
    67   76   77 2  
    68   69   74 am 
    69   33   27 2  
    70   34   33 1  
    71   35   34 1  
    72   34   36 1  
    73   35   43 1  
    74   36   37 1  
    75   37   38 ar 
    76   37   39 ar 
    77   38   40 ar 
    78   39   41 ar 
    79   40   42 ar 
    80   41   42 ar 
    81   76   79 1  
    82    1   80 1  
    83    1   81 1  
    84    1   82 1  
    85    2   83 1  
    86    5   84 1  
    87    6   85 1  
    88    6   86 1  
    89    6   87 1  
    90    7   88 1  
    91    7   89 1  
    92    7   90 1  
    93    8   91 1  
    94    9   92 1  
    95   12   93 1  
    96   12   94 1  
    97   13   95 1  
    98   14   96 1  
    99   15   97 1  
   100   18   98 1  
   101   18   99 1  
   102   20  100 1  
   103   21  101 1  
   104   22  102 1  
   105   23  103 1  
   106   24  104 1  
   107   25  105 1  
   108   26  106 1  
   109   29  107 1  
   110   29  108 1  
   111   32  109 1  
   112   32  110 1  
   113   34  111 1  
   114   35  112 1  
   115   35  113 1  
   116   36  114 1  
   117   36  115 1  
   118   38  116 1  
   119   39  117 1  
   120   40  118 1  
   121   41  119 1  
   122   42  120 1  
   123   43  121 1  
   124   44  122 1  
   125   47  123 1  
   126   47  124 1  
   127   48  125 1  
   128   48  126 1  
   129   49  127 1  
   130   49  128 1  
   131   50  129 1  
   132   51  130 1  
   133   54  131 1  
   134   54  132 1  
   135   55  133 1  
   136   55  134 1  
   137   58  135 1  
   138   58  136 1  
   139   59  137 1  
   140   60  138 1  
   141   63  139 1  
   142   64  140 1  
   143   64  141 1  
   144   65  142 1  
   145   65  143 1  
   146   65  144 1  
   147   66  145 1  
   148   66  146 1  
   149   66  147 1  
   150   67  148 1  
   151   68  149 1  
   152   71  150 1  
   153   72  151 1  
   154   73  152 1  
   155   73  153 1  
   156   73  154 1  
   157   74  155 1  
   158   75  156 1  
   159   78  157 1  
   160   78  158 1  
   161   78  159 1  
   162   79  160 1  
@<TRIPOS>SUBSTRUCTURE
     1 VAL301      1

