### 
### Created by X-TOOL on Fri Sep 26 17:34:37 2014
### 

@<TRIPOS>MOLECULE
2gek_ligand
   41    43     1     0     0
SMALL
GAST_HUCK


@<TRIPOS>ATOM
      1 PB         -5.1640   43.9720   28.8040 P.3       1 GDP         0.2069
      2 O1B        -5.1780   45.4160   29.2620 O.co2     1 GDP        -0.5891
      3 O2B        -6.3980   43.5090   29.5760 O.co2     1 GDP        -0.5891
      4 O3B        -5.1520   43.8490   27.2730 O.co2     1 GDP        -0.5891
      5 O3A        -3.9550   42.9370   29.2700 O.3       1 GDP        -0.1548
      6 PA         -2.6910   43.5720   30.0080 P.3       1 GDP         0.3276
      7 O1A        -2.8890   45.0290   29.7160 O.co2     1 GDP        -0.5556
      8 O2A        -2.6490   43.5600   31.5330 O.co2     1 GDP        -0.5556
      9 O5'        -1.3680   43.1960   29.1710 O.3       1 GDP        -0.2436
     10 C5'        -1.1930   43.9140   27.9680 C.3       1 GDP         0.1132
     11 C4'         0.2110   44.3660   27.5740 C.3       1 GDP         0.1190
     12 O4'         0.3200   45.7700   27.7630 O.3       1 GDP        -0.3347
     13 C3'         1.3850   43.7680   28.2910 C.3       1 GDP         0.1151
     14 O3'         2.3590   43.7700   27.2680 O.3       1 GDP        -0.3864
     15 C2'         1.6970   44.7990   29.3480 C.3       1 GDP         0.1407
     16 O2'         3.0730   44.8520   29.7150 O.3       1 GDP        -0.3835
     17 C1'         1.3650   46.1010   28.6530 C.3       1 GDP         0.2218
     18 N9          0.8580   47.1010   29.6280 N.pl3     1 GDP        -0.0954
     19 C8         -0.2620   47.0360   30.4070 C.2       1 GDP         0.1855
     20 N7         -0.3370   48.1810   31.1140 N.2       1 GDP        -0.1929
     21 C5          0.7220   48.9530   30.8000 C.2       1 GDP         0.2558
     22 C6          1.2550   50.2800   31.1840 C.2       1 GDP         0.2628
     23 O6          0.6030   50.9290   32.0640 O.2       1 GDP        -0.3594
     24 N1          2.4160   50.7240   30.5910 N.am      1 GDP        -0.2478
     25 C2          3.0610   49.9970   29.6700 C.cat     1 GDP         0.2041
     26 N2          4.2030   50.4300   29.0810 N.pl3     1 GDP        -0.3327
     27 N3          2.6170   48.7720   29.3060 N.pl3     1 GDP        -0.1901
     28 C4          1.4970   48.2370   29.8210 C.2       1 GDP         0.3268
     29 H          -1.7566   44.8366   28.1069 H         1 GDP         0.0648
     30 H          -1.4967   43.2230   27.1816 H         1 GDP         0.0648
     31 H           0.2824   44.0181   26.5435 H         1 GDP         0.0651
     32 H           1.2817   42.7834   28.7471 H         1 GDP         0.0648
     33 H           3.1784   43.4023   27.6071 H         1 GDP         0.2100
     34 H           1.1491   44.5809   30.2647 H         1 GDP         0.0677
     35 H           3.6009   45.0674   28.9427 H         1 GDP         0.2101
     36 H           2.2386   46.5288   28.1611 H         1 GDP         0.1021
     37 H          -0.9684   46.2069   30.4493 H         1 GDP         0.1823
     38 H           2.7950   51.6317   30.8609 H         1 GDP         0.1819
     39 H           4.5967   51.3357   29.3361 H         1 GDP         0.1774
     40 H           4.6684   49.8500   28.3829 H         1 GDP         0.1774
     41 H           3.1491   48.2377   28.6191 H         1 GDP         0.2519
@<TRIPOS>BOND
     1    1    2 ar 
     2    1    3 ar 
     3    1    4 ar 
     4    1    5 1  
     5    5    6 1  
     6    6    7 ar 
     7    6    8 ar 
     8    6    9 1  
     9    9   10 1  
    10   10   11 1  
    11   11   12 1  
    12   11   13 1  
    13   12   17 1  
    14   13   14 1  
    15   13   15 1  
    16   15   16 1  
    17   15   17 1  
    18   17   18 1  
    19   18   19 1  
    20   18   28 1  
    21   19   20 2  
    22   20   21 1  
    23   21   22 1  
    24   21   28 2  
    25   22   23 2  
    26   22   24 am 
    27   24   25 ar 
    28   25   26 ar 
    29   25   27 ar 
    30   27   28 1  
    31   10   29 1  
    32   10   30 1  
    33   11   31 1  
    34   13   32 1  
    35   14   33 1  
    36   15   34 1  
    37   16   35 1  
    38   17   36 1  
    39   19   37 1  
    40   24   38 1  
    41   26   39 1  
    42   26   40 1  
    43   27   41 1  
@<TRIPOS>SUBSTRUCTURE
     1 GDP         1

