### 
### Created by X-TOOL on Fri Sep 26 17:34:33 2014
### 

@<TRIPOS>MOLECULE
2gv2_ligand
  152   156     1     0     0
SMALL
GAST_HUCK


@<TRIPOS>ATOM
      1 C          14.8600   22.4250   12.0340 C.2       1 MOL         0.1752
      2 O          14.6390   21.4690   12.7740 O.2       1 MOL        -0.3972
      3 CH3        16.1580   23.2190   12.1550 C.3       1 MOL         0.0258
      4 N          14.0130   22.8210   11.0860 N.am      1 MOL        -0.2640
      5 CA         12.7340   22.1560   10.8740 C.3       1 MOL         0.1404
      6 C          12.8490   20.6570   10.5980 C.2       1 MOL         0.2060
      7 O          12.2110   19.8520   11.2710 O.2       1 MOL        -0.3942
      8 CB         11.9720   22.8150    9.7230 C.3       1 MOL         0.0214
      9 CG         10.6890   22.1160    9.3780 C.ar      1 MOL        -0.0386
     10 CD1         9.5740   22.2300   10.2040 C.ar      1 MOL        -0.0601
     11 CD2        10.6120   21.3000    8.2550 C.ar      1 MOL        -0.0601
     12 CE1         8.3980   21.5340    9.9160 C.ar      1 MOL        -0.0686
     13 CE2         9.4420   20.6020    7.9560 C.ar      1 MOL        -0.0686
     14 CZ          8.3350   20.7200    8.7910 C.ar      1 MOL        -0.0687
     15 N          13.6490   20.2830    9.6020 N.am      1 MOL        -0.2636
     16 CA         13.8150   18.8730    9.2530 C.3       1 MOL         0.1314
     17 C          14.1790   18.0170   10.4620 C.2       1 MOL         0.2010
     18 O          13.6310   16.9270   10.6510 O.2       1 MOL        -0.3947
     19 CB         14.8910   18.7170    8.1730 C.3       1 MOL        -0.0034
     20 CG         14.4930   19.2590    6.8130 C.3       1 MOL        -0.0024
     21 SD         13.1420   18.3300    6.0570 S.3       1 MOL        -0.1639
     22 CE         14.0420   16.9580    5.3170 C.3       1 MOL        -0.0181
     23 N          15.1030   18.5190   11.2770 N.am      1 MOL        -0.2745
     24 CA         15.5570   17.8170   12.4780 C.3       1 MOL         0.1274
     25 C          14.3600   17.5040   13.3780 C.2       1 MOL         0.2262
     26 O2         14.2110   16.3790   13.8600 O.2       1 MOL        -0.3419
     27 CB1        16.5490   18.6910   13.2280 C.3       1 MOL        -0.0323
     28 CB2        16.2540   16.5220   12.0820 C.3       1 MOL        -0.0323
     29 N          13.5150   18.5020   13.6140 N.am      1 MOL        -0.2612
     30 CA         12.3310   18.3170   14.4450 C.3       1 MOL         0.1397
     31 CB         11.6150   19.6540   14.6600 C.3       1 MOL         0.0184
     32 CG         12.3320   20.6210   15.5680 C.ar      1 MOL        -0.0452
     33 CD1        12.6570   21.9050   15.1320 C.ar      1 MOL        -0.0666
     34 CE1        13.2700   22.8190   15.9860 C.ar      1 MOL        -0.0655
     35 CD2        12.6410   20.2700   16.8780 C.ar      1 MOL        -0.0666
     36 CE2        13.2560   21.1710   17.7380 C.ar      1 MOL        -0.0655
     37 CZ         13.5650   22.4420   17.2880 C.ar      1 MOL        -0.0334
     38 CH4        14.2340   23.4200   18.2220 C.3       1 MOL         0.0499
     39 P          16.0110   23.5050   18.2080 P.3       1 MOL         0.0688
     40 O1         16.4760   22.1290   18.5200 O.co2     1 MOL        -0.5608
     41 O2         16.3530   23.9430   16.8330 O.co2     1 MOL        -0.5608
     42 O3         16.3740   24.4980   19.2460 O.co2     1 MOL        -0.5608
     43 C          11.3520   17.3570   13.7800 C.2       1 MOL         0.2061
     44 O          10.8180   16.4470   14.4100 O.2       1 MOL        -0.3942
     45 N          11.1140   17.5860   12.4950 N.am      1 MOL        -0.2625
     46 CA         10.1760   16.7800   11.7290 C.3       1 MOL         0.1352
     47 CB         10.0930   17.3310   10.3030 C.3       1 MOL         0.0043
     48 CG          8.9420   16.8030    9.5300 C.2       1 MOL        -0.0416
     49 CD2         7.5690   17.1660    9.6950 C.ar      1 MOL        -0.0212
     50 CE3         6.8930   18.0570   10.5410 C.ar      1 MOL        -0.0742
     51 CE2         6.8240   16.4160    8.7580 C.ar      1 MOL         0.0608
     52 NE1         7.7100   15.6340    8.0620 N.pl3     1 MOL        -0.2889
     53 CD1         8.9770   15.8700    8.5300 C.2       1 MOL         0.0169
     54 CZ2         5.4320   16.5250    8.6460 C.ar      1 MOL        -0.0305
     55 CH2         4.7950   17.4050    9.4860 C.ar      1 MOL         0.0251
     56 CLL         3.0730   17.5770    9.3880 Cl        1 MOL        -0.0799
     57 CZ3         5.5130   18.1670   10.4290 C.ar      1 MOL        -0.0654
     58 C          10.5310   15.2960   11.7060 C.2       1 MOL         0.2052
     59 O           9.6480   14.4400   11.7030 O.2       1 MOL        -0.3942
     60 N          11.8230   14.9940   11.6930 N.am      1 MOL        -0.2635
     61 CA         12.2760   13.6100   11.6690 C.3       1 MOL         0.1322
     62 C          11.8090   12.8790   12.9210 C.2       1 MOL         0.2011
     63 O          11.5960   11.6670   12.9010 O.2       1 MOL        -0.3947
     64 CB         13.8040   13.5570   11.5860 C.3       1 MOL        -0.0008
     65 CG         14.3680   12.1540   11.4040 C.3       1 MOL         0.0044
     66 CD         15.8810   12.1120   11.5300 C.2       1 MOL         0.0350
     67 OE1        16.5620   12.9050   10.8470 O.co2     1 MOL        -0.5690
     68 OE2        16.3900   11.2810   12.3110 O.co2     1 MOL        -0.5690
     69 C3         12.2830   12.4400   16.1620 C.3       1 MOL        -0.0184
     70 C4         11.6660   13.7550   16.5410 C.3       1 MOL        -0.0184
     71 C1         11.2180   13.0530   15.2780 C.3       1 MOL         0.1329
     72 C2          9.8320   12.4250   15.2380 C.2       1 MOL         0.2260
     73 O1          9.4820   11.6370   16.1140 O.2       1 MOL        -0.3419
     74 N1         11.6480   13.6250   14.0080 N.am      1 MOL        -0.2740
     75 N           9.0410   12.7680   14.2270 N.am      1 MOL        -0.2686
     76 CA          7.7010   12.2070   14.1180 C.3       1 MOL         0.0948
     77 C           7.7440   10.7250   13.7770 C.2       1 MOL         0.0603
     78 O           8.6780   10.3060   13.0600 O.co2     1 MOL        -0.5666
     79 CB          6.8940   12.9420   13.0490 C.3       1 MOL        -0.0154
     80 CG          6.4410   14.3620   13.3910 C.3       1 MOL        -0.0431
     81 CD1         5.7630   14.9790   12.1780 C.3       1 MOL        -0.0625
     82 CD2         5.4880   14.3260   14.5790 C.3       1 MOL        -0.0625
     83 OXT         6.8230   10.0090   14.2200 O.co2     1 MOL        -0.5666
     84 H1         16.1639   24.0278   11.4095 H         1 MOL         0.0467
     85 H2         17.0141   22.5513   11.9784 H         1 MOL         0.0467
     86 H3         16.2314   23.6502   13.1643 H         1 MOL         0.0467
     87 H4         14.2613   23.5954   10.5041 H         1 MOL         0.1884
     88 H5         12.1446   22.2802   11.7944 H         1 MOL         0.0823
     89 H6         12.6183   22.8163    8.8329 H         1 MOL         0.0474
     90 H7         11.7383   23.8514   10.0080 H         1 MOL         0.0474
     91 H8          9.6192   22.8662   11.0805 H         1 MOL         0.0557
     92 H9         11.4728   21.2050    7.6030 H         1 MOL         0.0557
     93 H10         7.5370   21.6283   10.5678 H         1 MOL         0.0599
     94 H11         9.3952   19.9700    7.0765 H         1 MOL         0.0599
     95 H12         7.4243   20.1775    8.5643 H         1 MOL         0.0559
     96 H13        14.1454   20.9790    9.0831 H         1 MOL         0.1883
     97 H14        12.8590   18.5077    8.8499 H         1 MOL         0.0800
     98 H15        15.1174   17.6461    8.0643 H         1 MOL         0.0320
     99 H16        15.7934   19.2507    8.5060 H         1 MOL         0.0320
    100 H17        15.3671   19.2128    6.1468 H         1 MOL         0.0378
    101 H18        14.1767   20.3059    6.9308 H         1 MOL         0.0378
    102 H19        13.3344   16.2881    4.8065 H         1 MOL         0.0340
    103 H20        14.5723   16.4007    6.1032 H         1 MOL         0.0340
    104 H21        14.7692   17.3466    4.5889 H         1 MOL         0.0340
    105 H22        15.5024   19.4099   11.0606 H         1 MOL         0.1839
    106 H23        16.8914   18.1648   14.1313 H         1 MOL         0.0242
    107 H24        16.0621   19.6345   13.5157 H         1 MOL         0.0242
    108 H25        17.4114   18.9061   12.5799 H         1 MOL         0.0242
    109 H26        16.5939   15.9970   12.9869 H         1 MOL         0.0242
    110 H27        17.1203   16.7520   11.4444 H         1 MOL         0.0242
    111 H28        15.5512   15.8816   11.5288 H         1 MOL         0.0242
    112 H29        13.6950   19.4001   13.2127 H         1 MOL         0.1891
    113 H30        12.6393   17.9070   15.4181 H         1 MOL         0.0824
    114 H31        10.6265   19.4458   15.0954 H         1 MOL         0.0461
    115 H32        11.4896   20.1358   13.6791 H         1 MOL         0.0461
    116 H33        12.4292   22.1963   14.1130 H         1 MOL         0.0540
    117 H34        13.5142   23.8156   15.6364 H         1 MOL         0.0540
    118 H35        12.3975   19.2756   17.2342 H         1 MOL         0.0540
    119 H36        13.4922   20.8800   18.7551 H         1 MOL         0.0540
    120 H37        13.9270   23.1577   19.2452 H         1 MOL         0.0600
    121 H38        13.8565   24.4224   17.9715 H         1 MOL         0.0600
    122 H39        11.5940   18.3355   12.0391 H         1 MOL         0.1884
    123 H40         9.1859   16.8776   12.1982 H         1 MOL         0.0815
    124 H41        11.0195   17.0655    9.7728 H         1 MOL         0.0397
    125 H42        10.0026   18.4259   10.3576 H         1 MOL         0.0397
    126 H43         7.4371   18.6485   11.2684 H         1 MOL         0.0541
    127 H44         7.4634   14.9757    7.3092 H         1 MOL         0.2216
    128 H45         9.8793   15.3856    8.1598 H         1 MOL         0.0797
    129 H46         4.8783   15.9367    7.9233 H         1 MOL         0.0547
    130 H47         4.9789   18.8511   11.0785 H         1 MOL         0.0515
    131 H48        12.4988   15.7310   11.6998 H         1 MOL         0.1883
    132 H49        11.8515   13.1122   10.7847 H         1 MOL         0.0801
    133 H50        14.2154   13.9768   12.5158 H         1 MOL         0.0330
    134 H51        14.1253   14.1719   10.7324 H         1 MOL         0.0330
    135 H52        14.0874   11.7883   10.4053 H         1 MOL         0.0433
    136 H53        13.9323   11.4968   12.1710 H         1 MOL         0.0433
    137 H54        12.0571   11.5376   16.7491 H         1 MOL         0.0276
    138 H55        13.3272   12.4019   15.8182 H         1 MOL         0.0276
    139 H56        12.2589   14.6792   16.4748 H         1 MOL         0.0276
    140 H57        10.9887   13.8149   17.4057 H         1 MOL         0.0276
    141 H58        11.8269   14.6074   13.9536 H         1 MOL         0.1839
    142 H59         9.3672   13.4146   13.5374 H         1 MOL         0.1881
    143 H60         7.1963   12.3290   15.0877 H         1 MOL         0.0728
    144 H61         5.9937   12.3452   12.8409 H         1 MOL         0.0308
    145 H62         7.5142   12.9985   12.1423 H         1 MOL         0.0308
    146 H63         7.3198   14.9677   13.6570 H         1 MOL         0.0297
    147 H64         5.4359   16.0008   12.4210 H         1 MOL         0.0232
    148 H65         4.8899   14.3716   11.8974 H         1 MOL         0.0232
    149 H66         6.4726   15.0112   11.3381 H         1 MOL         0.0232
    150 H67         5.9975   13.8768   15.4442 H         1 MOL         0.0232
    151 H68         4.6036   13.7248   14.3215 H         1 MOL         0.0232
    152 H69         5.1749   15.3504   14.8291 H         1 MOL         0.0232
@<TRIPOS>BOND
     1    1    2 2  
     2    1    3 1  
     3    4    1 am 
     4    5    4 1  
     5    6    5 1  
     6    5    8 1  
     7    6    7 2  
     8   15    6 am 
     9    8    9 1  
    10    9   10 ar 
    11    9   11 ar 
    12   10   12 ar 
    13   11   13 ar 
    14   12   14 ar 
    15   13   14 ar 
    16   16   15 1  
    17   17   16 1  
    18   16   19 1  
    19   17   18 2  
    20   23   17 am 
    21   19   20 1  
    22   20   21 1  
    23   21   22 1  
    24   24   23 1  
    25   25   24 1  
    26   24   27 1  
    27   24   28 1  
    28   25   26 2  
    29   29   25 am 
    30   30   29 1  
    31   30   31 1  
    32   43   30 1  
    33   31   32 1  
    34   32   33 ar 
    35   32   35 ar 
    36   33   34 ar 
    37   34   37 ar 
    38   35   36 ar 
    39   36   37 ar 
    40   37   38 1  
    41   38   39 1  
    42   39   40 ar 
    43   39   41 ar 
    44   39   42 ar 
    45   43   44 2  
    46   45   43 am 
    47   46   45 1  
    48   46   47 1  
    49   58   46 1  
    50   47   48 1  
    51   48   49 1  
    52   48   53 2  
    53   49   50 ar 
    54   49   51 ar 
    55   50   57 ar 
    56   52   51 1  
    57   51   54 ar 
    58   53   52 1  
    59   54   55 ar 
    60   55   56 1  
    61   57   55 ar 
    62   58   59 2  
    63   60   58 am 
    64   61   60 1  
    65   62   61 1  
    66   61   64 1  
    67   62   63 2  
    68   74   62 am 
    69   64   65 1  
    70   65   66 1  
    71   66   67 ar 
    72   66   68 ar 
    73   70   69 1  
    74   71   69 1  
    75   71   70 1  
    76   71   72 1  
    77   71   74 1  
    78   72   73 2  
    79   72   75 am 
    80   75   76 1  
    81   76   77 1  
    82   76   79 1  
    83   77   78 ar 
    84   77   83 ar 
    85   79   80 1  
    86   80   81 1  
    87   80   82 1  
    88    3   84 1  
    89    3   85 1  
    90    3   86 1  
    91    4   87 1  
    92    5   88 1  
    93    8   89 1  
    94    8   90 1  
    95   10   91 1  
    96   11   92 1  
    97   12   93 1  
    98   13   94 1  
    99   14   95 1  
   100   15   96 1  
   101   16   97 1  
   102   19   98 1  
   103   19   99 1  
   104   20  100 1  
   105   20  101 1  
   106   22  102 1  
   107   22  103 1  
   108   22  104 1  
   109   23  105 1  
   110   27  106 1  
   111   27  107 1  
   112   27  108 1  
   113   28  109 1  
   114   28  110 1  
   115   28  111 1  
   116   29  112 1  
   117   30  113 1  
   118   31  114 1  
   119   31  115 1  
   120   33  116 1  
   121   34  117 1  
   122   35  118 1  
   123   36  119 1  
   124   38  120 1  
   125   38  121 1  
   126   45  122 1  
   127   46  123 1  
   128   47  124 1  
   129   47  125 1  
   130   50  126 1  
   131   52  127 1  
   132   53  128 1  
   133   54  129 1  
   134   57  130 1  
   135   60  131 1  
   136   61  132 1  
   137   64  133 1  
   138   64  134 1  
   139   65  135 1  
   140   65  136 1  
   141   69  137 1  
   142   69  138 1  
   143   70  139 1  
   144   70  140 1  
   145   74  141 1  
   146   75  142 1  
   147   76  143 1  
   148   79  144 1  
   149   79  145 1  
   150   80  146 1  
   151   81  147 1  
   152   81  148 1  
   153   81  149 1  
   154   82  150 1  
   155   82  151 1  
   156   82  152 1  
@<TRIPOS>SUBSTRUCTURE
     1 MOL         1

