### 
### Created by X-TOOL on Fri Sep 26 17:34:39 2014
### 

@<TRIPOS>MOLECULE
2jke_ligand
   25    25     1     0     0
SMALL
GAST_HUCK


@<TRIPOS>ATOM
      1 C1         23.5560   44.2570   68.6290 C.3       1 NOJ        -0.0040
      2 C2         23.2300   43.2230   69.7220 C.3       1 NOJ         0.1231
      3 O2         22.5830   43.8930   70.7790 O.3       1 NOJ        -0.3838
      4 C3         24.5590   42.6270   70.2120 C.3       1 NOJ         0.1171
      5 O3         24.3790   41.8000   71.3270 O.3       1 NOJ        -0.3862
      6 C4         25.1710   41.8020   69.0820 C.3       1 NOJ         0.1280
      7 O4         26.4550   41.3620   69.5490 O.3       1 NOJ        -0.3835
      8 C5         25.3890   42.7210   67.8600 C.3       1 NOJ         0.0301
      9 N5         24.2380   43.5920   67.5090 N.4       1 NOJ         0.2346
     10 C6         25.7250   41.9230   66.5930 C.3       1 NOJ         0.0893
     11 O6         24.6290   41.0330   66.2910 O.3       1 NOJ        -0.3894
     12 H1         24.2110   45.0362   69.0458 H         1 NOJ         0.0840
     13 H2         22.6233   44.7159   68.2692 H         1 NOJ         0.0840
     14 H3         22.5814   42.4292   69.3232 H         1 NOJ         0.0674
     15 H4         22.3729   43.2708   71.4654 H         1 NOJ         0.2101
     16 H5         25.2411   43.4468   70.4814 H         1 NOJ         0.0649
     17 H6         25.2194   41.4513   71.6002 H         1 NOJ         0.2100
     18 H7         24.5281   40.9489   68.8196 H         1 NOJ         0.0678
     19 H8         26.3427   40.8360   70.3321 H         1 NOJ         0.2102
     20 H9         26.2432   43.3711   68.1004 H         1 NOJ         0.0900
     21 H10        24.5749   44.3090   66.8858 H         1 NOJ         0.2019
     22 H11        23.5577   43.0229   67.0300 H         1 NOJ         0.2019
     23 H12        26.6407   41.3366   66.7590 H         1 NOJ         0.0614
     24 H13        25.8800   42.6149   65.7521 H         1 NOJ         0.0614
     25 H14        24.8325   40.5366   65.5070 H         1 NOJ         0.2097
@<TRIPOS>BOND
     1    1    2 1  
     2    1    9 1  
     3    2    3 1  
     4    2    4 1  
     5    4    5 1  
     6    4    6 1  
     7    6    7 1  
     8    6    8 1  
     9    8    9 1  
    10    8   10 1  
    11   10   11 1  
    12    1   12 1  
    13    1   13 1  
    14    2   14 1  
    15    3   15 1  
    16    4   16 1  
    17    5   17 1  
    18    6   18 1  
    19    7   19 1  
    20    8   20 1  
    21    9   21 1  
    22    9   22 1  
    23   10   23 1  
    24   10   24 1  
    25   11   25 1  
@<TRIPOS>SUBSTRUCTURE
     1 NOJ         1

