### 
### Created by X-TOOL on Fri Sep 26 17:34:42 2014
### 

@<TRIPOS>MOLECULE
2k31_ligand
   35    38     1     0     0
SMALL
GAST_HUCK


@<TRIPOS>ATOM
      1 P           8.4850    1.8690    3.1570 P.3       1 MOL         0.2557
      2 O1P         9.4770    0.9340    3.7960 O.co2     1 MOL        -0.6177
      3 O2P         7.9410    1.6180    1.7690 O.co2     1 MOL        -0.6177
      4 O5'         8.9810    3.4700    3.1840 O.3       1 MOL        -0.2514
      5 C5'         7.9890    4.4570    2.6770 C.3       1 MOL         0.1128
      6 C4'         6.6940    4.3960    3.5760 C.3       1 MOL         0.1243
      7 O4'         5.6220    5.1880    3.3240 O.3       1 MOL        -0.3343
      8 C3'         6.1290    3.0210    3.6410 C.3       1 MOL         0.1541
      9 O3'         7.1830    2.0780    4.1460 O.3       1 MOL        -0.2453
     10 C2'         4.9340    3.2760    4.5210 C.3       1 MOL         0.1461
     11 O2'         5.1630    2.8610    5.8860 O.3       1 MOL        -0.3831
     12 C1'         4.6600    4.7780    4.2980 C.3       1 MOL         0.2222
     13 N9          3.3160    5.0870    3.7620 N.pl3     1 MOL        -0.0954
     14 C8          2.7840    4.9160    2.4930 C.2       1 MOL         0.1855
     15 N7          1.4850    5.3540    2.4750 N.2       1 MOL        -0.1929
     16 C5          1.1960    5.7980    3.7240 C.2       1 MOL         0.2558
     17 C6          0.0300    6.4220    4.5420 C.2       1 MOL         0.2628
     18 O6         -1.0780    6.6490    3.9900 O.2       1 MOL        -0.3594
     19 N1          0.1840    6.7860    6.0530 N.am      1 MOL        -0.2478
     20 C2          1.4280    6.5800    6.8450 C.cat     1 MOL         0.2041
     21 N2          1.5650    6.8940    8.1570 N.pl3     1 MOL        -0.3327
     22 N3          2.5140    5.9850    6.0310 N.pl3     1 MOL        -0.1901
     23 C4          2.4080    5.6140    4.5530 C.2       1 MOL         0.3268
     24 H1          7.7268    4.2145    1.6366 H         1 MOL         0.0647
     25 H2          8.4201    5.4680    2.7204 H         1 MOL         0.0647
     26 H3          7.0421    4.6679    4.5834 H         1 MOL         0.0655
     27 H4          5.7983    2.6684    2.6529 H         1 MOL         0.0712
     28 H5          4.0727    2.7006    4.1507 H         1 MOL         0.0681
     29 H6          4.3876    3.0388    6.4053 H         1 MOL         0.2102
     30 H7          4.8017    5.3217    5.2437 H         1 MOL         0.1022
     31 H8          3.3169    4.4975    1.6405 H         1 MOL         0.1823
     32 H9         -0.6057    7.1841    6.5198 H         1 MOL         0.1819
     33 H10         2.4597    6.7213    8.6372 H         1 MOL         0.1774
     34 H11         0.7744    7.3053    8.6734 H         1 MOL         0.1774
     35 H12         3.4136    5.8071    6.5000 H         1 MOL         0.2519
@<TRIPOS>BOND
     1    1    2 ar 
     2    1    3 ar 
     3    1    4 1  
     4    1    9 1  
     5    4    5 1  
     6    5    6 1  
     7    6    7 1  
     8    6    8 1  
     9    7   12 1  
    10    8    9 1  
    11    8   10 1  
    12   10   11 1  
    13   10   12 1  
    14   12   13 1  
    15   13   14 1  
    16   13   23 1  
    17   14   15 2  
    18   15   16 1  
    19   16   17 1  
    20   16   23 2  
    21   17   18 2  
    22   17   19 am 
    23   19   20 ar 
    24   20   21 ar 
    25   20   22 ar 
    26   22   23 1  
    27    5   24 1  
    28    5   25 1  
    29    6   26 1  
    30    8   27 1  
    31   10   28 1  
    32   11   29 1  
    33   12   30 1  
    34   14   31 1  
    35   19   32 1  
    36   21   33 1  
    37   21   34 1  
    38   22   35 1  
@<TRIPOS>SUBSTRUCTURE
     1 MOL         1

