### 
### Created by X-TOOL on Fri Sep 26 17:34:45 2014
### 

@<TRIPOS>MOLECULE
2wji_ligand
   46    48     1     0     0
SMALL
GAST_HUCK


@<TRIPOS>ATOM
      1 PG         10.0360    2.6690   26.8960 P.3       1 GNP         0.1803
      2 O1G        10.7720    3.4670   27.9240 O.co2     1 GNP        -0.5454
      3 O2G        10.8150    1.4690   26.3890 O.co2     1 GNP        -0.5454
      4 O3G         9.7430    3.7070   25.8400 O.co2     1 GNP        -0.5454
      5 N3B         8.6330    2.1510   27.4770 N.am      1 GNP        -0.1803
      6 PB          8.3170    1.6310   28.9590 P.3       1 GNP         0.2543
      7 O1B         8.9230    0.2990   29.1520 O.co2     1 GNP        -0.6257
      8 O2B         8.7390    2.6620   29.9070 O.co2     1 GNP        -0.6257
      9 O3A         6.7950    1.4590   29.0970 O.3       1 GNP        -0.1431
     10 PA          5.8010    2.4030   29.8160 P.3       1 GNP         0.2949
     11 O1A         5.8350    2.1240   31.2750 O.co2     1 GNP        -0.6129
     12 O2A         5.9840    3.8150   29.4100 O.co2     1 GNP        -0.6129
     13 O5'         4.3910    1.9450   29.3110 O.3       1 GNP        -0.2478
     14 C5'         4.2470    1.4370   27.9910 C.3       1 GNP         0.1128
     15 C4'         2.7800    1.1840   27.6970 C.3       1 GNP         0.1190
     16 O4'         2.3320   -0.0390   28.3400 O.3       1 GNP        -0.3347
     17 C3'         1.8370    2.2850   28.1710 C.3       1 GNP         0.1151
     18 O3'         0.7440    2.3890   27.2670 O.3       1 GNP        -0.3864
     19 C2'         1.3550    1.7460   29.5020 C.3       1 GNP         0.1407
     20 O2'         0.0780    2.2420   29.8410 O.3       1 GNP        -0.3835
     21 C1'         1.2460    0.2640   29.1800 C.3       1 GNP         0.2218
     22 N9          1.2960   -0.5440   30.3870 N.pl3     1 GNP        -0.0954
     23 C8          2.2140   -0.4450   31.4070 C.2       1 GNP         0.1855
     24 N7          1.9920   -1.2970   32.3710 N.2       1 GNP        -0.1929
     25 C5          0.8500   -1.9910   31.9710 C.2       1 GNP         0.2558
     26 C6          0.1350   -3.0350   32.6080 C.2       1 GNP         0.2628
     27 O6          0.3730   -3.5740   33.7010 O.2       1 GNP        -0.3594
     28 N1         -0.9680   -3.4540   31.8590 N.am      1 GNP        -0.2478
     29 C2         -1.3350   -2.9270   30.6400 C.cat     1 GNP         0.2041
     30 N2         -2.4300   -3.4580   30.0650 N.pl3     1 GNP        -0.3327
     31 N3         -0.6680   -1.9510   30.0320 N.pl3     1 GNP        -0.1901
     32 C4          0.4060   -1.5320   30.7510 C.2       1 GNP         0.3268
     33 H1          7.8640    2.1530   26.8377 H         1 GNP         0.2132
     34 H2          4.8061    0.4941   27.8991 H         1 GNP         0.0648
     35 H3          4.6428    2.1695   27.2722 H         1 GNP         0.0648
     36 H4          2.6730    1.0804   26.6071 H         1 GNP         0.0651
     37 H5          2.3478    3.2534   28.2770 H         1 GNP         0.0648
     38 H6          0.1556    3.0745   27.5609 H         1 GNP         0.2100
     39 H7          2.0706    1.9502   30.3120 H         1 GNP         0.0677
     40 H8         -0.5472    1.9870   29.1727 H         1 GNP         0.2101
     41 H9          0.2994    0.0656   28.6561 H         1 GNP         0.1021
     42 H10         3.0375    0.2676   31.4099 H         1 GNP         0.1823
     43 H11        -1.5316   -4.1895   32.2350 H         1 GNP         0.1819
     44 H12        -2.7548   -3.1062   29.1530 H         1 GNP         0.1774
     45 H13        -2.9432   -4.2162   30.5369 H         1 GNP         0.1774
     46 H14        -0.9353   -1.5568   29.1187 H         1 GNP         0.2519
@<TRIPOS>BOND
     1    1    2 ar 
     2    1    3 ar 
     3    1    4 ar 
     4    1    5 am 
     5    5    6 1  
     6    6    7 ar 
     7    6    8 ar 
     8    6    9 1  
     9    9   10 1  
    10   10   11 ar 
    11   10   12 ar 
    12   10   13 1  
    13   13   14 1  
    14   14   15 1  
    15   15   16 1  
    16   15   17 1  
    17   16   21 1  
    18   17   18 1  
    19   17   19 1  
    20   19   20 1  
    21   19   21 1  
    22   21   22 1  
    23   22   23 1  
    24   22   32 1  
    25   23   24 2  
    26   24   25 1  
    27   25   26 1  
    28   25   32 2  
    29   26   27 2  
    30   26   28 am 
    31   28   29 ar 
    32   29   30 ar 
    33   29   31 ar 
    34   31   32 1  
    35    5   33 1  
    36   14   34 1  
    37   14   35 1  
    38   15   36 1  
    39   17   37 1  
    40   18   38 1  
    41   19   39 1  
    42   20   40 1  
    43   21   41 1  
    44   23   42 1  
    45   28   43 1  
    46   30   44 1  
    47   30   45 1  
    48   31   46 1  
@<TRIPOS>SUBSTRUCTURE
     1 GNP         1

