### 
### Created by X-TOOL on Fri Sep 26 17:34:40 2014
### 

@<TRIPOS>MOLECULE
2zfi_ligand
   39    41     1     0     0
SMALL
GAST_HUCK


@<TRIPOS>ATOM
      1 PB         24.2290  -19.8800    7.1830 P.3       1 ADP         0.2069
      2 O1B        25.5960  -20.0570    6.6540 O.co2     1 ADP        -0.5891
      3 O2B        23.4850  -21.2260    7.1920 O.co2     1 ADP        -0.5891
      4 O3B        24.1920  -19.3320    8.5370 O.co2     1 ADP        -0.5891
      5 PA         22.8360  -17.4450    6.4320 P.3       1 ADP         0.3276
      6 O1A        21.9920  -17.4560    7.6430 O.co2     1 ADP        -0.5556
      7 O2A        23.9530  -16.4320    6.5380 O.co2     1 ADP        -0.5556
      8 O3A        23.5120  -18.8880    6.2060 O.3       1 ADP        -0.1548
      9 O5'        21.9680  -17.1360    5.2060 O.3       1 ADP        -0.2436
     10 C5'        22.7100  -16.7470    4.0770 C.3       1 ADP         0.1132
     11 C4'        22.1970  -15.5090    3.4410 C.3       1 ADP         0.1189
     12 O4'        20.8460  -15.6580    3.0420 O.3       1 ADP        -0.3364
     13 C3'        22.2680  -14.2400    4.2660 C.3       1 ADP         0.1149
     14 O3'        22.9400  -13.2510    3.4700 O.3       1 ADP        -0.3864
     15 C2'        20.7800  -13.9480    4.6100 C.3       1 ADP         0.1385
     16 O2'        20.4140  -12.5600    4.6700 O.3       1 ADP        -0.3836
     17 C1'        19.9580  -14.7580    3.5820 C.3       1 ADP         0.2010
     18 N9         18.7890  -15.4680    4.1270 N.pl3     1 ADP        -0.1919
     19 C8         18.7080  -16.7000    4.7030 C.2       1 ADP         0.1123
     20 N7         17.4510  -17.0770    4.9930 N.2       1 ADP        -0.2958
     21 C5         16.6710  -16.0410    4.4920 C.ar      1 ADP         0.1045
     22 C6         15.2540  -15.8790    4.3850 C.ar      1 ADP         0.1298
     23 N6         14.3660  -16.7680    4.8440 N.pl3     1 ADP        -0.3152
     24 N1         14.7990  -14.7080    3.7900 N.ar      1 ADP        -0.2698
     25 C2         15.7220  -13.7610    3.3620 C.ar      1 ADP         0.0533
     26 N3         17.0430  -13.8260    3.4210 N.ar      1 ADP        -0.2714
     27 C4         17.4750  -15.0250    3.9810 C.ar      1 ADP         0.1613
     28 H1         22.6747  -17.5607    3.3376 H         1 ADP         0.0648
     29 H2         23.7521  -16.5762    4.3849 H         1 ADP         0.0648
     30 H3         22.8080  -15.3471    2.5408 H         1 ADP         0.0651
     31 H4         22.8370  -14.3955    5.1944 H         1 ADP         0.0648
     32 H5         23.0013  -12.4397    3.9604 H         1 ADP         0.2100
     33 H6         20.5806  -14.3603    5.6101 H         1 ADP         0.0676
     34 H7         19.4917  -12.4859    4.8852 H         1 ADP         0.2101
     35 H8         19.5994  -14.0733    2.7994 H         1 ADP         0.0996
     36 H9         19.5790  -17.3204    4.9089 H         1 ADP         0.1349
     37 H10        13.3571  -16.5913    4.7353 H         1 ADP         0.1820
     38 H11        14.6912  -17.6292    5.3062 H         1 ADP         0.1820
     39 H12        15.3095  -12.8582    2.9263 H         1 ADP         0.0996
@<TRIPOS>BOND
     1    1    2 ar 
     2    1    3 ar 
     3    1    4 ar 
     4    8    1 1  
     5    5    6 ar 
     6    5    7 ar 
     7    5    8 1  
     8    5    9 1  
     9    9   10 1  
    10   10   11 1  
    11   11   12 1  
    12   11   13 1  
    13   12   17 1  
    14   13   14 1  
    15   13   15 1  
    16   15   16 1  
    17   15   17 1  
    18   17   18 1  
    19   18   19 1  
    20   18   27 1  
    21   19   20 2  
    22   20   21 1  
    23   21   22 ar 
    24   21   27 ar 
    25   22   23 1  
    26   22   24 ar 
    27   24   25 ar 
    28   25   26 ar 
    29   26   27 ar 
    30   10   28 1  
    31   10   29 1  
    32   11   30 1  
    33   13   31 1  
    34   14   32 1  
    35   15   33 1  
    36   16   34 1  
    37   17   35 1  
    38   19   36 1  
    39   23   37 1  
    40   23   38 1  
    41   25   39 1  
@<TRIPOS>SUBSTRUCTURE
     1 ADP         1

