### 
### Created by X-TOOL on Fri Sep 26 17:34:57 2014
### 

@<TRIPOS>MOLECULE
3au6_ligand
   43    45     1     0     0
SMALL
GAST_HUCK


@<TRIPOS>ATOM
      1 PG          1.5300  -30.7990    1.8770 P.3       1 DG3         0.1879
      2 O1G         0.0500  -30.5600    1.6300 O.co2     1 DG3        -0.6091
      3 O2G         1.8060  -31.7320    3.0160 O.co2     1 DG3        -0.6091
      4 O3G         2.2310  -31.1540    0.5950 O.co2     1 DG3        -0.6091
      5 O3B         2.1860  -29.4630    2.5280 O.3       1 DG3        -0.1546
      6 PB          1.3550  -28.4640    3.5250 P.3       1 DG3         0.3553
      7 O1B         2.1380  -28.1280    4.7860 O.co2     1 DG3        -0.5652
      8 O2B         0.9990  -27.2680    2.6870 O.co2     1 DG3        -0.5652
      9 O3A        -0.0040  -29.2610    3.9780 O.3       1 DG3        -0.1171
     10 PA         -0.0950  -30.2830    5.2360 P.3       1 DG3         0.3266
     11 O1A        -0.7300  -31.5300    4.7370 O.co2     1 DG3        -0.5692
     12 O2A         1.2020  -30.3100    6.0350 O.co2     1 DG3        -0.5692
     13 O5'        -1.1870  -29.6980    6.2460 O.3       1 DG3        -0.2442
     14 C5'        -1.8120  -28.4150    6.1380 C.3       1 DG3         0.1106
     15 C4'        -1.5000  -27.3580    7.2350 C.3       1 DG3         0.0908
     16 O4'        -1.5030  -27.7820    8.6170 O.3       1 DG3        -0.3394
     17 C3'        -0.1540  -26.6450    7.0610 C.3       1 DG3        -0.0188
     18 C2'         0.0450  -25.9600    8.4080 C.3       1 DG3         0.0076
     19 C1'        -0.8200  -26.7670    9.3680 C.3       1 DG3         0.1933
     20 N9          0.1160  -27.3560   10.3220 N.pl3     1 DG3        -0.0982
     21 C8          0.8670  -28.4440   10.0860 C.2       1 DG3         0.1854
     22 N7          1.6560  -28.7340   11.1520 N.2       1 DG3        -0.1929
     23 C5          1.4030  -27.8090   12.0890 C.2       1 DG3         0.2558
     24 C6          1.9010  -27.5340   13.4590 C.2       1 DG3         0.2628
     25 O6          2.7700  -28.2730   14.0090 O.2       1 DG3        -0.3594
     26 N1          1.3690  -26.4660   14.0950 N.am      1 DG3        -0.2478
     27 C2          0.4370  -25.6570   13.5340 C.cat     1 DG3         0.2041
     28 N2         -0.0220  -24.6060   14.2590 N.pl3     1 DG3        -0.3327
     29 N3         -0.0540  -25.8580   12.2770 N.pl3     1 DG3        -0.1901
     30 C4          0.3880  -26.8940   11.5300 C.2       1 DG3         0.3267
     31 H1         -2.8996  -28.5793    6.1416 H         1 DG3         0.0647
     32 H2         -1.5095  -27.9837    5.1724 H         1 DG3         0.0647
     33 H3         -2.2926  -26.6021    7.1329 H         1 DG3         0.0624
     34 H4         -0.1988  -25.9084    6.2453 H         1 DG3         0.0293
     35 H5          0.6526  -27.3656    6.8605 H         1 DG3         0.0293
     36 H6         -0.2901  -24.9131    8.3668 H         1 DG3         0.0321
     37 H7          1.1017  -25.9951    8.7114 H         1 DG3         0.0321
     38 H8         -1.5488  -26.1251    9.8844 H         1 DG3         0.0993
     39 H9          0.8459  -29.0183    9.1610 H         1 DG3         0.1823
     40 H10         1.6780  -26.2630   15.0242 H         1 DG3         0.1819
     41 H11        -0.7302  -23.9743   13.8587 H         1 DG3         0.1774
     42 H12         0.3378  -24.4398   15.2097 H         1 DG3         0.1774
     43 H13        -0.7647  -25.2174   11.8956 H         1 DG3         0.2519
@<TRIPOS>BOND
     1    1    2 ar 
     2    1    3 ar 
     3    1    4 ar 
     4    1    5 1  
     5    5    6 1  
     6    6    7 ar 
     7    6    8 ar 
     8    6    9 1  
     9    9   10 1  
    10   10   11 ar 
    11   10   12 ar 
    12   10   13 1  
    13   13   14 1  
    14   14   15 1  
    15   15   16 1  
    16   15   17 1  
    17   16   19 1  
    18   17   18 1  
    19   18   19 1  
    20   19   20 1  
    21   20   21 1  
    22   20   30 1  
    23   21   22 2  
    24   22   23 1  
    25   23   24 1  
    26   23   30 2  
    27   24   25 2  
    28   24   26 am 
    29   26   27 ar 
    30   27   28 ar 
    31   27   29 ar 
    32   29   30 1  
    33   14   31 1  
    34   14   32 1  
    35   15   33 1  
    36   17   34 1  
    37   17   35 1  
    38   18   36 1  
    39   18   37 1  
    40   19   38 1  
    41   21   39 1  
    42   26   40 1  
    43   28   41 1  
    44   28   42 1  
    45   29   43 1  
@<TRIPOS>SUBSTRUCTURE
     1 DG3         1

