### 
### Created by X-TOOL on Sat Nov 28 16:03:53 2015
### 

@<TRIPOS>MOLECULE
3b82_ligand
   70    74     1     0     0
SMALL
GAST_HUCK


@<TRIPOS>ATOM
      1 PA          3.9580   -5.2490   94.2850 P.3       1 NAD         0.2972
      2 O1A         2.5650   -4.9230   94.7560 O.co2     1 NAD        -0.6127
      3 O2A         4.9940   -5.7210   95.2780 O.co2     1 NAD        -0.6127
      4 O5B         4.4890   -3.9060   93.5710 O.3       1 NAD        -0.2476
      5 C5B         3.5710   -3.1380   92.7910 C.3       1 NAD         0.1128
      6 C4B         4.1130   -2.8040   91.3970 C.3       1 NAD         0.1189
      7 O4B         4.5330   -1.4380   91.2540 O.3       1 NAD        -0.3364
      8 C3B         5.2810   -3.6720   90.9280 C.3       1 NAD         0.1149
      9 O3B         4.8600   -4.5390   89.8700 O.3       1 NAD        -0.3864
     10 C2B         6.3220   -2.7030   90.3970 C.3       1 NAD         0.1385
     11 O2B         6.8670   -3.1440   89.1500 O.3       1 NAD        -0.3836
     12 C1B         5.5300   -1.4170   90.2250 C.3       1 NAD         0.2010
     13 N9A         6.3980   -0.2030   90.1650 N.pl3     1 NAD        -0.1919
     14 C8A         6.2540    0.7700   89.2510 C.2       1 NAD         0.1123
     15 N7A         7.1820    1.7240   89.4620 N.2       1 NAD        -0.2958
     16 C5A         7.9150    1.3460   90.5240 C.ar      1 NAD         0.1045
     17 C6A         8.9870    1.9410   91.1680 C.ar      1 NAD         0.1298
     18 N6A         9.4650    3.1310   90.7250 N.pl3     1 NAD        -0.3152
     19 N1A         9.5340    1.3140   92.2310 N.ar      1 NAD        -0.2698
     20 C2A         9.0440    0.1360   92.6520 C.ar      1 NAD         0.0533
     21 N3A         8.0040   -0.4600   92.0450 N.ar      1 NAD        -0.2714
     22 C4A         7.4140    0.1320   90.9760 C.ar      1 NAD         0.1613
     23 O3          3.8810   -6.3540   93.1180 O.3       1 NAD        -0.1319
     24 PN          5.1470   -7.3030   92.8100 P.3       1 NAD         0.2972
     25 O1N         6.4150   -6.5320   93.0850 O.co2     1 NAD        -0.6127
     26 O2N         4.9560   -7.9470   91.4610 O.co2     1 NAD        -0.6127
     27 O5D         4.9080   -8.4120   93.9520 O.3       1 NAD        -0.2476
     28 C5D         3.8250   -9.3250   93.7900 C.3       1 NAD         0.1127
     29 C4D         4.1160  -10.6410   94.4940 C.3       1 NAD         0.1175
     30 O4D         4.9140  -11.4380   93.6190 O.3       1 NAD        -0.3489
     31 C3D         4.8690  -10.4730   95.7950 C.3       1 NAD         0.1134
     32 O3D         3.9750  -10.7210   96.8800 O.3       1 NAD        -0.3864
     33 C2D         5.9340  -11.5500   95.7230 C.3       1 NAD         0.1245
     34 O2D         5.6450  -12.5580   96.6980 O.3       1 NAD        -0.3851
     35 C1D         5.8840  -12.1830   94.3390 C.3       1 NAD         0.1576
     36 N1N         7.1740  -12.0220   93.6590 N.ar      1 NAD        -0.2936
     37 C2N         7.2810  -11.1450   92.6470 C.ar      1 NAD         0.0671
     38 C3N         8.4910  -10.9640   91.9780 C.ar      1 NAD         0.1587
     39 C7N         8.6100   -9.9830   90.8460 C.2       1 NAD         0.3690
     40 O7N         9.5050  -10.1340   90.0310 O.2       1 NAD        -0.2307
     41 N7N         7.7360   -8.9830   90.7530 N.am      1 NAD        -0.2274
     42 C4N         9.5980  -11.7120   92.3570 C.ar      1 NAD         0.0203
     43 C5N         9.4640  -12.6160   93.4010 C.ar      1 NAD         0.0100
     44 C6N         8.2310  -12.7600   94.0330 C.ar      1 NAD         0.0432
     45 H           3.3601   -2.1975   93.3210 H         1 NAD         0.0648
     46 H           2.6395   -3.7120   92.6779 H         1 NAD         0.0648
     47 H           3.2792   -2.9715   90.6994 H         1 NAD         0.0651
     48 H           5.6851   -4.2647   91.7619 H         1 NAD         0.0648
     49 H           5.5940   -5.0722   89.5880 H         1 NAD         0.2100
     50 H           7.1383   -2.5687   91.1220 H         1 NAD         0.0676
     51 H           6.1698   -3.2160   88.5088 H         1 NAD         0.2101
     52 H           5.0067   -1.4639   89.2586 H         1 NAD         0.0996
     53 H           5.5038    0.7857   88.4618 H         1 NAD         0.1349
     54 H          10.2622    3.5756   91.2022 H         1 NAD         0.1820
     55 H           9.0307    3.5898   89.9115 H         1 NAD         0.1820
     56 H           9.5015   -0.3482   93.5072 H         1 NAD         0.0996
     57 H           3.6722   -9.5162   92.7176 H         1 NAD         0.0648
     58 H           2.9132   -8.8819   94.2170 H         1 NAD         0.0648
     59 H           3.1635  -11.1511   94.7001 H         1 NAD         0.0650
     60 H           5.3138   -9.4710   95.8853 H         1 NAD         0.0647
     61 H           4.4400  -10.6176   97.7019 H         1 NAD         0.2100
     62 H           6.9275  -11.1159   95.9087 H         1 NAD         0.0660
     63 H           6.3093  -13.2358   96.6575 H         1 NAD         0.2101
     64 H           5.6111  -13.2468   94.4011 H         1 NAD         0.0811
     65 H           6.4134  -10.5692   92.3458 H         1 NAD         0.1162
     66 H           7.8069   -8.3251   90.0033 H         1 NAD         0.2875
     67 H           7.0086   -8.8898   91.4329 H         1 NAD         0.2875
     68 H          10.5473  -11.5921   91.8476 H         1 NAD         0.0911
     69 H          10.3139  -13.2068   93.7230 H         1 NAD         0.0924
     70 H           8.1236  -13.4780   94.8380 H         1 NAD         0.1187
@<TRIPOS>BOND
     1    1    2 ar 
     2    1    3 ar 
     3    1    4 1  
     4    1   23 1  
     5    4    5 1  
     6    5    6 1  
     7    6    7 1  
     8    6    8 1  
     9    7   12 1  
    10    8    9 1  
    11    8   10 1  
    12   10   11 1  
    13   10   12 1  
    14   12   13 1  
    15   13   14 1  
    16   13   22 1  
    17   14   15 2  
    18   15   16 1  
    19   16   17 ar 
    20   16   22 ar 
    21   17   18 1  
    22   17   19 ar 
    23   19   20 ar 
    24   20   21 ar 
    25   21   22 ar 
    26   23   24 1  
    27   24   25 ar 
    28   24   26 ar 
    29   24   27 1  
    30   27   28 1  
    31   28   29 1  
    32   29   30 1  
    33   29   31 1  
    34   30   35 1  
    35   31   32 1  
    36   31   33 1  
    37   33   34 1  
    38   33   35 1  
    39   35   36 1  
    40   36   37 ar 
    41   36   44 ar 
    42   37   38 ar 
    43   38   39 1  
    44   38   42 ar 
    45   39   40 2  
    46   39   41 am 
    47   42   43 ar 
    48   43   44 ar 
    49    5   45 1  
    50    5   46 1  
    51    6   47 1  
    52    8   48 1  
    53    9   49 1  
    54   10   50 1  
    55   11   51 1  
    56   12   52 1  
    57   14   53 1  
    58   18   54 1  
    59   18   55 1  
    60   20   56 1  
    61   28   57 1  
    62   28   58 1  
    63   29   59 1  
    64   31   60 1  
    65   32   61 1  
    66   33   62 1  
    67   34   63 1  
    68   35   64 1  
    69   37   65 1  
    70   41   66 1  
    71   41   67 1  
    72   42   68 1  
    73   43   69 1  
    74   44   70 1  
@<TRIPOS>SUBSTRUCTURE
     1 NAD         1

