### 
### Created by X-TOOL on Fri Sep 26 17:34:44 2014
### 

@<TRIPOS>MOLECULE
3fe7_ligand
  154   158     1     0     0
SMALL
GAST_HUCK


@<TRIPOS>ATOM
      1 C          13.9620   23.9290    4.3630 C.2       1 ACE         0.1752
      2 O          15.0330   23.6680    4.8800 O.2       1 ACE        -0.3972
      3 CH3        13.3150   25.2820    4.4590 C.3       1 ACE         0.0258
      4 N          13.2810   23.0530    3.6130 N.am      1 ACE        -0.2640
      5 CA         13.7770   21.6790    3.4410 C.3       1 ACE         0.1404
      6 C          15.1650   21.5700    2.8790 C.2       1 ACE         0.2060
      7 O          16.0180   20.8670    3.4420 O.2       1 ACE        -0.3942
      8 CB         12.7900   20.8310    2.5730 C.3       1 ACE         0.0214
      9 CG         13.3790   19.4540    2.3370 C.ar      1 ACE        -0.0386
     10 CD1        13.4330   18.4830    3.3270 C.ar      1 ACE        -0.0601
     11 CD2        13.9260   19.1320    1.0840 C.ar      1 ACE        -0.0601
     12 CE1        14.0260   17.2430    3.0650 C.ar      1 ACE        -0.0686
     13 CE2        14.5110   17.9030    0.8070 C.ar      1 ACE        -0.0686
     14 CZ         14.5500   16.9320    1.8130 C.ar      1 ACE        -0.0687
     15 N          15.4290   22.2470    1.7690 N.am      1 ACE        -0.2636
     16 CA         16.7600   22.1190    1.1830 C.3       1 ACE         0.1314
     17 C          17.8220   22.6750    2.0680 C.2       1 ACE         0.2010
     18 O          18.9240   22.0840    2.1290 O.2       1 ACE        -0.3947
     19 CB         16.7020   22.8340   -0.1510 C.3       1 ACE        -0.0034
     20 CG         17.8980   22.4980   -1.0580 C.3       1 ACE        -0.0024
     21 SD         18.2420   20.7710   -1.3760 S.3       1 ACE        -0.1639
     22 CE         16.8270   19.8950   -1.7770 C.3       1 ACE        -0.0181
     23 N          17.6090   23.7560    2.7780 N.am      1 ACE        -0.2745
     24 CA         18.6090   24.3300    3.6910 C.3       1 ACE         0.1274
     25 C          19.0250   23.2360    4.6750 C.2       1 ACE         0.2262
     26 O          20.2290   23.0240    4.9820 O.2       1 ACE        -0.3419
     27 CB1        17.9250   25.4180    4.4860 C.3       1 ACE        -0.0323
     28 CB2        19.8250   24.8810    2.9220 C.3       1 ACE        -0.0323
     29 N          18.0370   22.4690    5.2030 N.am      1 ACE        -0.2612
     30 CA         18.3900   21.3890    6.1140 C.3       1 ACE         0.1397
     31 CB         17.1150   20.8230    6.7640 C.3       1 ACE         0.0184
     32 CG         16.4320   21.6170    7.8620 C.ar      1 ACE        -0.0452
     33 CD1        15.1160   22.0720    7.6560 C.ar      1 ACE        -0.0666
     34 CE1        14.4390   22.7820    8.6620 C.ar      1 ACE        -0.0655
     35 CD2        17.1000   21.8620    9.0650 C.ar      1 ACE        -0.0666
     36 CE2        16.4140   22.5810   10.0700 C.ar      1 ACE        -0.0655
     37 CZ         15.1160   23.0330    9.8530 C.ar      1 ACE        -0.0334
     38 CH4        14.4260   23.8090   10.9730 C.3       1 ACE         0.0499
     39 P          14.7280   25.6060   10.8780 P.3       1 ACE         0.0688
     40 O1         16.1630   25.7530   11.3280 O.co2     1 ACE        -0.5608
     41 O2         14.4690   26.0710    9.4650 O.co2     1 ACE        -0.5608
     42 O3         13.7500   26.2810   11.8360 O.co2     1 ACE        -0.5608
     43 C          19.0510   20.2460    5.4060 C.2       1 ACE         0.2061
     44 O          20.0880   19.7280    5.8500 O.2       1 ACE        -0.3942
     45 N          18.4800   19.7930    4.2740 N.am      1 ACE        -0.2625
     46 CA         19.0410   18.6410    3.5700 C.3       1 ACE         0.1352
     47 C          20.4670   18.8170    3.1190 C.2       1 ACE         0.2052
     48 O          21.2790   17.8990    3.3010 O.2       1 ACE        -0.3942
     49 CB         18.0930   18.3630    2.3450 C.3       1 ACE         0.0042
     50 CG         18.5330   17.0880    1.7120 C.2       1 ACE        -0.0418
     51 CD1        19.3950   16.9600    0.6240 C.2       1 ACE         0.0167
     52 CD2        18.2120   15.7190    2.1170 C.ar      1 ACE        -0.0214
     53 NE1        19.6150   15.6330    0.3430 N.pl3     1 ACE        -0.2890
     54 CE2        18.9160   14.8830    1.2320 C.ar      1 ACE         0.0603
     55 CE3        17.4040   15.2160    3.1480 C.ar      1 ACE        -0.0747
     56 CZ2        18.7910   13.5120    1.3590 C.ar      1 ACE        -0.0443
     57 CZ3        17.2860   13.8340    3.2450 C.ar      1 ACE        -0.0792
     58 CH2        17.9780   13.0060    2.3760 C.ar      1 ACE        -0.0768
     59 N          20.7400   19.9750    2.5260 N.am      1 ACE        -0.2635
     60 CA         22.1140   20.1920    2.0340 C.3       1 ACE         0.1322
     61 C          23.1290   20.3160    3.1450 C.2       1 ACE         0.2011
     62 O          24.3380   20.2820    2.8570 O.2       1 ACE        -0.3947
     63 CB         22.1970   21.4790    1.1990 C.3       1 ACE        -0.0008
     64 CG         21.4280   21.6760   -0.1170 C.3       1 ACE         0.0044
     65 CD         21.6080   23.1350   -0.6270 C.2       1 ACE         0.0350
     66 OE1        22.0790   24.0480    0.1040 O.co2     1 ACE        -0.5690
     67 OE2        21.2580   23.4300   -1.7900 O.co2     1 ACE        -0.5690
     68 CB         24.4910   21.7350    5.6620 C.3       1 ACE        -0.0184
     69 CG         23.2930   21.6430    6.5800 C.3       1 ACE        -0.0184
     70 CA         23.5400   20.5360    5.5530 C.3       1 ACE         0.1329
     71 C          23.9460   19.2100    6.0870 C.2       1 ACE         0.2266
     72 O          24.7660   19.1330    7.0350 O.2       1 ACE        -0.3419
     73 N          22.6570   20.4500    4.3890 N.am      1 ACE        -0.2740
     74 N          23.4680   18.1000    5.5540 N.am      1 ACE        -0.2629
     75 CA         23.8630   16.7780    6.0550 C.3       1 ACE         0.1310
     76 C          25.3290   16.5160    5.7940 C.2       1 ACE         0.1993
     77 O          25.8700   16.8620    4.7500 O.2       1 ACE        -0.3947
     78 CB         22.9980   15.6740    5.3840 C.3       1 ACE        -0.0099
     79 CG         21.5660   15.6210    5.9320 C.3       1 ACE        -0.0425
     80 CD1        20.6940   14.7310    5.0330 C.3       1 ACE        -0.0625
     81 CD2        21.5590   15.0460    7.3550 C.3       1 ACE        -0.0625
     82 N          26.0270   15.9130    6.7450 N.am      1 ACE        -0.2990
     83 H1         12.3594   25.2709    3.9143 H         1 ACE         0.0467
     84 H2         13.9800   26.0387    4.0172 H         1 ACE         0.0467
     85 H3         13.1319   25.5268    5.5157 H         1 ACE         0.0467
     86 H4         12.4310   23.3345    3.1677 H         1 ACE         0.1884
     87 H5         13.8055   21.2298    4.4447 H         1 ACE         0.0823
     88 H6         12.6289   21.3313    1.6067 H         1 ACE         0.0474
     89 H7         11.8294   20.7334    3.1000 H         1 ACE         0.0474
     90 H8         13.0145   18.6858    4.3062 H         1 ACE         0.0557
     91 H9         13.8900   19.8767    0.2971 H         1 ACE         0.0557
     92 H10        14.0788   16.5052    3.8574 H         1 ACE         0.0599
     93 H11        14.9301   17.6999   -0.1719 H         1 ACE         0.0599
     94 H12        14.9801   15.9556    1.6215 H         1 ACE         0.0559
     95 H13        14.7351   22.8292    1.3452 H         1 ACE         0.1883
     96 H14        16.9800   21.0545    1.0144 H         1 ACE         0.0800
     97 H15        16.6927   23.9187    0.0314 H         1 ACE         0.0320
     98 H16        15.7759   22.5410   -0.6672 H         1 ACE         0.0320
     99 H17        18.7954   22.9312   -0.5922 H         1 ACE         0.0378
    100 H18        17.7194   22.9816   -2.0297 H         1 ACE         0.0378
    101 H19        17.0877   18.8427   -1.9631 H         1 ACE         0.0340
    102 H20        16.3731   20.3257   -2.6816 H         1 ACE         0.0340
    103 H21        16.1110   19.9536   -0.9440 H         1 ACE         0.0340
    104 H22        16.7233   24.2128    2.6948 H         1 ACE         0.1839
    105 H23        18.6457   25.8716    5.1823 H         1 ACE         0.0242
    106 H24        17.0882   24.9859    5.0544 H         1 ACE         0.0242
    107 H25        17.5432   26.1885    3.8001 H         1 ACE         0.0242
    108 H26        20.5499   25.3011    3.6348 H         1 ACE         0.0242
    109 H27        19.4943   25.6682    2.2285 H         1 ACE         0.0242
    110 H28        20.2990   24.0671    2.3538 H         1 ACE         0.0242
    111 H29        17.0803   22.6432    4.9696 H         1 ACE         0.1891
    112 H30        19.0654   21.7819    6.8883 H         1 ACE         0.0824
    113 H31        17.3786   19.8441    7.1910 H         1 ACE         0.0461
    114 H32        16.3773   20.6856    5.9597 H         1 ACE         0.0461
    115 H33        14.6203   21.8729    6.7128 H         1 ACE         0.0540
    116 H34        13.4208   23.1240    8.5156 H         1 ACE         0.0540
    117 H35        18.1135   21.5112    9.2225 H         1 ACE         0.0540
    118 H36        16.9025   22.7818   11.0166 H         1 ACE         0.0540
    119 H37        14.8012   23.4402   11.9390 H         1 ACE         0.0600
    120 H38        13.3425   23.6308   10.9082 H         1 ACE         0.0600
    121 H39        17.6662   20.2478    3.9121 H         1 ACE         0.1884
    122 H40        19.0143   17.7752    4.2480 H         1 ACE         0.0815
    123 H41        18.1670   19.1865    1.6195 H         1 ACE         0.0397
    124 H42        17.0526   18.2705    2.6898 H         1 ACE         0.0397
    125 H43        19.8318   17.7929    0.0750 H         1 ACE         0.0795
    126 H44        20.2102   15.2690   -0.4147 H         1 ACE         0.2216
    127 H45        16.8935   15.8767    3.8394 H         1 ACE         0.0540
    128 H46        19.3129   12.8438    0.6836 H         1 ACE         0.0541
    129 H47        16.6476   13.4010    4.0065 H         1 ACE         0.0510
    130 H48        17.8856   11.9319    2.4888 H         1 ACE         0.0530
    131 H49        20.0362   20.6770    2.4168 H         1 ACE         0.1883
    132 H50        22.3872   19.3341    1.4020 H         1 ACE         0.0801
    133 H51        23.2605   21.6107    0.9507 H         1 ACE         0.0330
    134 H52        21.8722   22.2928    1.8640 H         1 ACE         0.0330
    135 H53        20.3592   21.4791    0.0529 H         1 ACE         0.0433
    136 H54        21.8142   20.9761   -0.8726 H         1 ACE         0.0433
    137 H55        25.5046   21.5970    6.0664 H         1 ACE         0.0276
    138 H56        24.5145   22.4916    4.8639 H         1 ACE         0.0276
    139 H57        22.4472   22.3340    6.4488 H         1 ACE         0.0276
    140 H58        23.4373   21.4393    7.6513 H         1 ACE         0.0276
    141 H59        21.6677   20.4929    4.5286 H         1 ACE         0.1839
    142 H60        22.8228   18.1616    4.7924 H         1 ACE         0.1889
    143 H61        23.6908   16.7500    7.1411 H         1 ACE         0.0802
    144 H62        23.4766   14.6990    5.5582 H         1 ACE         0.0315
    145 H63        22.9528   15.8723    4.3030 H         1 ACE         0.0315
    146 H64        21.1505   16.6393    5.9500 H         1 ACE         0.0298
    147 H65        19.6696   14.6983    5.4324 H         1 ACE         0.0232
    148 H66        21.1110   13.7134    5.0093 H         1 ACE         0.0232
    149 H67        20.6770   15.1442    4.0137 H         1 ACE         0.0232
    150 H68        22.1809   15.6759    8.0080 H         1 ACE         0.0232
    151 H69        21.9633   14.0231    7.3392 H         1 ACE         0.0232
    152 H70        20.5279   15.0269    7.7377 H         1 ACE         0.0232
    153 H71        26.9992   15.7233    6.6077 H         1 ACE         0.1815
    154 H72        25.5817   15.6475    7.6001 H         1 ACE         0.1815
@<TRIPOS>BOND
     1    1    2 2  
     2    1    3 1  
     3    4    1 am 
     4    5    4 1  
     5    6    5 1  
     6    5    8 1  
     7    6    7 2  
     8   15    6 am 
     9    8    9 1  
    10    9   10 ar 
    11    9   11 ar 
    12   10   12 ar 
    13   11   13 ar 
    14   12   14 ar 
    15   13   14 ar 
    16   16   15 1  
    17   17   16 1  
    18   16   19 1  
    19   17   18 2  
    20   23   17 am 
    21   19   20 1  
    22   20   21 1  
    23   21   22 1  
    24   24   23 1  
    25   25   24 1  
    26   24   27 1  
    27   24   28 1  
    28   25   26 2  
    29   29   25 am 
    30   30   29 1  
    31   30   31 1  
    32   43   30 1  
    33   31   32 1  
    34   32   33 ar 
    35   32   35 ar 
    36   33   34 ar 
    37   34   37 ar 
    38   35   36 ar 
    39   36   37 ar 
    40   37   38 1  
    41   38   39 1  
    42   39   40 ar 
    43   39   41 ar 
    44   39   42 ar 
    45   43   44 2  
    46   45   43 am 
    47   46   45 1  
    48   47   46 1  
    49   46   49 1  
    50   47   48 2  
    51   59   47 am 
    52   49   50 1  
    53   50   51 2  
    54   50   52 1  
    55   51   53 1  
    56   52   54 ar 
    57   52   55 ar 
    58   54   53 1  
    59   54   56 ar 
    60   55   57 ar 
    61   56   58 ar 
    62   57   58 ar 
    63   60   59 1  
    64   61   60 1  
    65   60   63 1  
    66   61   62 2  
    67   73   61 am 
    68   63   64 1  
    69   64   65 1  
    70   65   66 ar 
    71   65   67 ar 
    72   69   68 1  
    73   70   68 1  
    74   70   69 1  
    75   70   71 1  
    76   70   73 1  
    77   71   72 2  
    78   71   74 am 
    79   74   75 1  
    80   75   76 1  
    81   75   78 1  
    82   76   77 2  
    83   76   82 am 
    84   78   79 1  
    85   79   80 1  
    86   79   81 1  
    87    3   83 1  
    88    3   84 1  
    89    3   85 1  
    90    4   86 1  
    91    5   87 1  
    92    8   88 1  
    93    8   89 1  
    94   10   90 1  
    95   11   91 1  
    96   12   92 1  
    97   13   93 1  
    98   14   94 1  
    99   15   95 1  
   100   16   96 1  
   101   19   97 1  
   102   19   98 1  
   103   20   99 1  
   104   20  100 1  
   105   22  101 1  
   106   22  102 1  
   107   22  103 1  
   108   23  104 1  
   109   27  105 1  
   110   27  106 1  
   111   27  107 1  
   112   28  108 1  
   113   28  109 1  
   114   28  110 1  
   115   29  111 1  
   116   30  112 1  
   117   31  113 1  
   118   31  114 1  
   119   33  115 1  
   120   34  116 1  
   121   35  117 1  
   122   36  118 1  
   123   38  119 1  
   124   38  120 1  
   125   45  121 1  
   126   46  122 1  
   127   49  123 1  
   128   49  124 1  
   129   51  125 1  
   130   53  126 1  
   131   55  127 1  
   132   56  128 1  
   133   57  129 1  
   134   58  130 1  
   135   59  131 1  
   136   60  132 1  
   137   63  133 1  
   138   63  134 1  
   139   64  135 1  
   140   64  136 1  
   141   68  137 1  
   142   68  138 1  
   143   69  139 1  
   144   69  140 1  
   145   73  141 1  
   146   74  142 1  
   147   75  143 1  
   148   78  144 1  
   149   78  145 1  
   150   79  146 1  
   151   80  147 1  
   152   80  148 1  
   153   80  149 1  
   154   81  150 1  
   155   81  151 1  
   156   81  152 1  
   157   82  153 1  
   158   82  154 1  
@<TRIPOS>SUBSTRUCTURE
     1 ACE         1

