### 
### Created by X-TOOL on Fri Sep 26 17:34:48 2014
### 

@<TRIPOS>MOLECULE
3okp_ligand
   41    43     1     0     0
SMALL
GAST_HUCK


@<TRIPOS>ATOM
      1 N2         11.8370    7.0740   16.7210 N.pl3     1 GDD        -0.3327
      2 C2         10.4970    7.1680   16.9030 C.cat     1 GDD         0.2041
      3 N1          9.6630    7.0400   15.8430 N.am      1 GDD        -0.2478
      4 N3         10.0030    7.3910   18.1430 N.pl3     1 GDD        -0.1901
      5 C4          8.6620    7.4900   18.3420 C.2       1 GDD         0.3268
      6 C5          7.7940    7.3590   17.2690 C.2       1 GDD         0.2558
      7 C6          8.3200    7.1310   16.0020 C.2       1 GDD         0.2628
      8 O6          7.5640    7.0080   15.0160 O.2       1 GDD        -0.3594
      9 N7          6.5400    7.4950   17.7460 N.2       1 GDD        -0.1929
     10 C8          6.6290    7.7030   19.0800 C.2       1 GDD         0.1855
     11 N9          7.9230    7.6970   19.4370 N.pl3     1 GDD        -0.0954
     12 C1'         8.4810    7.8940   20.8000 C.3       1 GDD         0.2218
     13 C2'         8.3080    9.3370   21.2470 C.3       1 GDD         0.1407
     14 O2'         9.3640   10.1720   20.7650 O.3       1 GDD        -0.3835
     15 C3'         8.2970    9.2220   22.7580 C.3       1 GDD         0.1151
     16 O3'         9.6240    9.3690   23.2770 O.3       1 GDD        -0.3864
     17 C4'         7.7840    7.8130   23.0410 C.3       1 GDD         0.1190
     18 O4'         7.8250    7.1030   21.7960 O.3       1 GDD        -0.3347
     19 C5'         6.3550    7.8270   23.5810 C.3       1 GDD         0.1132
     20 O5'         6.3480    7.8130   25.0110 O.3       1 GDD        -0.2436
     21 PA          5.2290    8.3180   25.7850 P.3       1 GDD         0.3276
     22 O1A         5.5670    8.3970   26.9870 O.co2     1 GDD        -0.5556
     23 O2A         4.9060    9.4650   25.3870 O.co2     1 GDD        -0.5556
     24 O3A         4.0730    7.4490   25.6640 O.3       1 GDD        -0.1548
     25 PB          4.0820    6.0160   25.9070 P.3       1 GDD         0.2069
     26 O2B         4.8450    5.7210   26.8520 O.co2     1 GDD        -0.5891
     27 O3B         2.9220    5.6450   26.1870 O.co2     1 GDD        -0.5891
     28 O1B         4.4980    5.3200   24.7140 O.co2     1 GDD        -0.5891
     29 H          12.4678    7.1713   17.5166 H         1 GDD         0.1774
     30 H          12.2145    6.9060   15.7884 H         1 GDD         0.1774
     31 H          10.0504    6.8732   14.9143 H         1 GDD         0.1819
     32 H          10.6409    7.4854   18.9333 H         1 GDD         0.2519
     33 H           5.7864    7.8514   19.7554 H         1 GDD         0.1823
     34 H           9.5282    7.6026   20.7197 H         1 GDD         0.1021
     35 H           7.4059    9.8077   20.8562 H         1 GDD         0.0677
     36 H          10.2037    9.8502   21.1011 H         1 GDD         0.2101
     37 H           7.6799    9.9913   23.2221 H         1 GDD         0.0648
     38 H           9.9694   10.2300   23.0300 H         1 GDD         0.2100
     39 H           8.4037    7.3380   23.8016 H         1 GDD         0.0651
     40 H           5.8357    6.9393   23.2198 H         1 GDD         0.0648
     41 H           5.8600    8.7354   23.2375 H         1 GDD         0.0648
@<TRIPOS>BOND
     1    1    2 ar 
     2    2    3 ar 
     3    2    4 ar 
     4    3    7 am 
     5    4    5 1  
     6    5    6 2  
     7    5   11 1  
     8    6    7 1  
     9    6    9 1  
    10    7    8 2  
    11    9   10 2  
    12   10   11 1  
    13   11   12 1  
    14   12   13 1  
    15   12   18 1  
    16   13   14 1  
    17   13   15 1  
    18   15   16 1  
    19   15   17 1  
    20   17   18 1  
    21   17   19 1  
    22   19   20 1  
    23   20   21 1  
    24   21   22 ar 
    25   21   23 ar 
    26   21   24 1  
    27   24   25 1  
    28   25   26 ar 
    29   25   27 ar 
    30   25   28 ar 
    31    1   29 1  
    32    1   30 1  
    33    3   31 1  
    34    4   32 1  
    35   10   33 1  
    36   12   34 1  
    37   13   35 1  
    38   14   36 1  
    39   15   37 1  
    40   16   38 1  
    41   17   39 1  
    42   19   40 1  
    43   19   41 1  
@<TRIPOS>SUBSTRUCTURE
     1 GDD         1

