### 
### Created by X-TOOL on Fri Sep 26 17:34:51 2014
### 

@<TRIPOS>MOLECULE
3tjm_ligand
   58    57     1     0     0
SMALL
GAST_HUCK


@<TRIPOS>ATOM
      1 C1          3.6210   66.1570   47.7730 C.3       1 MOL        -0.0986
      2 P1          3.2590   66.3180   46.0270 P.3       1 MOL        -0.2129
      3 C2          4.1580   64.8250   48.1740 C.3       1 MOL        -0.0661
      4 O2          2.6040   67.7190   45.6960 O.3       1 MOL        -0.4741
      5 C3          4.2120   64.7270   49.6840 C.3       1 MOL        -0.0527
      6 C4          2.8210   64.6400   50.2600 C.3       1 MOL        -0.0463
      7 C5          2.8430   64.3710   51.7360 C.3       1 MOL        -0.0360
      8 C6          2.7280   65.6720   52.4880 C.2       1 MOL        -0.0967
      9 C7          2.2810   65.7810   53.7550 C.2       1 MOL        -0.0910
     10 C8          1.8280   64.6260   54.6020 C.3       1 MOL        -0.0204
     11 C9          0.7860   65.1320   55.5630 C.2       1 MOL        -0.0910
     12 CM          1.1900   67.9270   45.7020 C.3       1 MOL         0.0170
     13 C10         0.2620   64.4010   56.5620 C.2       1 MOL        -0.0967
     14 C11         0.6600   62.9850   56.8380 C.3       1 MOL        -0.0360
     15 C12         0.5630   62.7360   58.3130 C.3       1 MOL        -0.0463
     16 C13         0.6190   61.4890   58.8030 C.3       1 MOL        -0.0515
     17 C14         1.9420   60.8010   58.9810 C.3       1 MOL        -0.0529
     18 C15         1.7860   59.3200   58.8310 C.3       1 MOL        -0.0531
     19 C16         1.6580   59.0020   57.3730 C.3       1 MOL        -0.0533
     20 C17         0.3340   58.3400   57.1690 C.3       1 MOL        -0.0559
     21 C18         0.5540   57.1800   56.2570 C.3       1 MOL        -0.0653
     22 O1          2.4100   65.0640   45.5450 O.co2     1 MOL        -0.8880
     23 H           2.6811   66.2956   48.3073 H         1 MOL         0.0094
     24 H           4.3887   66.8941   48.0085 H         1 MOL         0.0094
     25 H           5.1628   64.7048   47.7690 H         1 MOL         0.0252
     26 H           3.5069   64.0421   47.7852 H         1 MOL         0.0252
     27 H           4.7027   65.6168   50.0785 H         1 MOL         0.0266
     28 H           4.7655   63.8296   49.9602 H         1 MOL         0.0266
     29 H           2.2989   63.8180   49.7703 H         1 MOL         0.0285
     30 H           2.3217   65.5946   50.0938 H         1 MOL         0.0285
     31 H           3.7797   63.8807   52.0011 H         1 MOL         0.0390
     32 H           2.0055   63.7250   51.9992 H         1 MOL         0.0390
     33 H           3.0261   66.5854   51.9732 H         1 MOL         0.0458
     34 H           2.2458   66.7772   54.1959 H         1 MOL         0.0463
     35 H           2.6725   64.2073   55.1494 H         1 MOL         0.0511
     36 H           1.4094   63.8402   53.9732 H         1 MOL         0.0511
     37 H           0.4339   66.1563   55.4411 H         1 MOL         0.0463
     38 H           0.7238   67.2668   44.9706 H         1 MOL         0.0517
     39 H           0.7960   67.7078   46.6944 H         1 MOL         0.0517
     40 H           0.9756   68.9645   45.4456 H         1 MOL         0.0517
     41 H          -0.4897   64.8623   57.2025 H         1 MOL         0.0458
     42 H           1.6827   62.8159   56.5009 H         1 MOL         0.0390
     43 H          -0.0022   62.3038   56.3036 H         1 MOL         0.0390
     44 H          -0.4370   63.0809   58.5761 H         1 MOL         0.0285
     45 H           1.4469   63.2236   58.7241 H         1 MOL         0.0285
     46 H           0.0989   60.8843   58.0601 H         1 MOL         0.0267
     47 H           0.2244   61.5795   59.8150 H         1 MOL         0.0267
     48 H           2.3230   61.0180   59.9789 H         1 MOL         0.0265
     49 H           2.6349   61.1632   58.2215 H         1 MOL         0.0265
     50 H           0.8976   58.9830   59.3651 H         1 MOL         0.0265
     51 H           2.6540   58.8098   59.2487 H         1 MOL         0.0265
     52 H           2.4656   58.3424   57.0556 H         1 MOL         0.0265
     53 H           1.7230   59.9131   56.7782 H         1 MOL         0.0265
     54 H          -0.3807   59.0388   56.7343 H         1 MOL         0.0263
     55 H          -0.0779   58.0058   58.1212 H         1 MOL         0.0263
     56 H           0.9545   57.5364   55.3080 H         1 MOL         0.0230
     57 H           1.2616   56.4887   56.7147 H         1 MOL         0.0230
     58 H          -0.3939   56.6703   56.0843 H         1 MOL         0.0230
@<TRIPOS>BOND
     1    1    2 1  
     2    1    3 1  
     3    2    4 1  
     4    2   22 ar 
     5    3    5 1  
     6    4   12 1  
     7    5    6 1  
     8    6    7 1  
     9    7    8 1  
    10    8    9 2  
    11    9   10 1  
    12   10   11 1  
    13   11   13 2  
    14   13   14 1  
    15   14   15 1  
    16   15   16 1  
    17   16   17 1  
    18   17   18 1  
    19   18   19 1  
    20   19   20 1  
    21   20   21 1  
    22    1   23 1  
    23    1   24 1  
    24    3   25 1  
    25    3   26 1  
    26    5   27 1  
    27    5   28 1  
    28    6   29 1  
    29    6   30 1  
    30    7   31 1  
    31    7   32 1  
    32    8   33 1  
    33    9   34 1  
    34   10   35 1  
    35   10   36 1  
    36   11   37 1  
    37   12   38 1  
    38   12   39 1  
    39   12   40 1  
    40   13   41 1  
    41   14   42 1  
    42   14   43 1  
    43   15   44 1  
    44   15   45 1  
    45   16   46 1  
    46   16   47 1  
    47   17   48 1  
    48   17   49 1  
    49   18   50 1  
    50   18   51 1  
    51   19   52 1  
    52   19   53 1  
    53   20   54 1  
    54   20   55 1  
    55   21   56 1  
    56   21   57 1  
    57   21   58 1  
@<TRIPOS>SUBSTRUCTURE
     1 MOL         1

