### 
### Created by X-TOOL on Fri Sep 26 17:34:59 2014
### 

@<TRIPOS>MOLECULE
3zp9_ligand
   73    77     1     0     0
SMALL
GAST_HUCK


@<TRIPOS>ATOM
      1 CL         20.9260    7.2640    9.8070 Cl        1 MOL        -0.1454
      2 C21        16.8800    7.5950   11.8500 C.3       1 MOL         0.0751
      3 C22        17.7060    6.6270   12.6260 C.ar      1 MOL         0.0452
      4 C23        17.1220    5.5590   13.3000 C.ar      1 MOL        -0.0248
      5 N21        19.0920    6.7440   12.7140 N.ar      1 MOL        -0.2985
      6 C24        19.8980    5.8480   13.3990 C.ar      1 MOL         0.0018
      7 C25        19.3300    4.8000   14.0910 C.ar      1 MOL        -0.0346
      8 C26        17.9360    4.6740   14.0360 C.ar      1 MOL        -0.0062
      9 C27        17.2630    3.5700   14.7090 C.ar      1 MOL        -0.0107
     10 C28        18.0090    2.5460   15.3040 C.ar      1 MOL        -0.0494
     11 C29        17.4150    1.4440   15.9670 C.ar      1 MOL        -0.0327
     12 C30        15.8840    3.4970   14.8270 C.ar      1 MOL        -0.0494
     13 C31        15.2980    2.3820   15.5020 C.ar      1 MOL        -0.0327
     14 C32        16.0400    1.3250   16.0940 C.ar      1 MOL         0.1095
     15 S1         15.4300    0.0230   16.9310 S.o2      1 MOL         0.0666
     16 O1         15.9690    0.1210   18.2680 O.2       1 MOL        -0.1503
     17 O2         13.9890    0.1900   16.8670 O.2       1 MOL        -0.1503
     18 N2         15.8880   -1.3410   16.2680 N.am      1 MOL        -0.2608
     19 N3         17.8890    8.4190   11.1590 N.am      1 MOL        -0.2339
     20 S2         17.8090    8.2420    9.6260 S.o2      1 MOL         0.0702
     21 O3         18.7560    9.2070    9.1100 O.2       1 MOL        -0.1501
     22 O4         18.2740    6.9080    9.3270 O.2       1 MOL        -0.1501
     23 C13        16.2660    8.4080    9.1230 C.ar      1 MOL         0.1083
     24 C14        15.6580    9.6780    9.1190 C.ar      1 MOL        -0.0351
     25 C15        14.3250    9.8040    8.6900 C.ar      1 MOL        -0.0599
     26 C16        13.5990    8.6770    8.2740 C.ar      1 MOL        -0.0616
     27 C17        14.2110    7.4150    8.2740 C.ar      1 MOL        -0.0599
     28 C18        15.5410    7.2830    8.7010 C.ar      1 MOL        -0.0351
     29 C1         19.2770    9.8480   13.1150 C.2       1 MOL        -0.0705
     30 C11        17.8970    9.9030   13.5240 C.3       1 MOL        -0.0426
     31 C3         19.7620   10.6130   12.0040 C.2       1 MOL        -0.0869
     32 C4         18.9580   11.5500   11.1310 C.3       1 MOL        -0.0538
     33 C5         21.1650   10.3080   11.9160 C.2       1 MOL        -0.0869
     34 C6         22.0790   10.8970   10.8880 C.3       1 MOL        -0.0538
     35 C7         21.5290    9.3600   12.9700 C.2       1 MOL        -0.0705
     36 C8         22.8870    8.7990   13.2070 C.3       1 MOL        -0.0426
     37 C9         20.3230    9.0510   13.7570 C.3       1 MOL         0.0001
     38 C10        20.1880    8.1390   14.9360 C.3       1 MOL        -0.0432
     39 IR         20.0460    8.4280   11.7340 Ir        1 MOL         3.0000
     40 H1         21.9265    7.1571    9.8681 H         1 MOL         0.1454
     41 H2         16.2596    8.2095   12.5189 H         1 MOL         0.0667
     42 H3         16.2348    7.0732   11.1278 H         1 MOL         0.0667
     43 H4         16.0492    5.4086   13.2595 H         1 MOL         0.0649
     44 H5         20.9749    5.9716   13.3904 H         1 MOL         0.0797
     45 H6         19.9375    4.1015   14.6550 H         1 MOL         0.0654
     46 H7         19.0906    2.5986   15.2553 H         1 MOL         0.0640
     47 H8         18.0525    0.6738   16.3859 H         1 MOL         0.0642
     48 H9         15.2566    4.2774   14.4117 H         1 MOL         0.0640
     49 H10        14.2167    2.3400   15.5665 H         1 MOL         0.0642
     50 H11        15.5968   -2.2119   16.6639 H         1 MOL         0.1635
     51 H12        16.4683   -1.3311   15.4536 H         1 MOL         0.1635
     52 H13        18.5423    9.0167   11.6237 H         1 MOL         0.1703
     53 H14        16.2127   10.5508    9.4438 H         1 MOL         0.0637
     54 H15        13.8538   10.7802    8.6804 H         1 MOL         0.0618
     55 H16        12.5687    8.7817    7.9538 H         1 MOL         0.0618
     56 H17        13.6574    6.5431    7.9447 H         1 MOL         0.0618
     57 H18        16.0113    6.3063    8.7049 H         1 MOL         0.0637
     58 H19        17.3443   10.5827   12.8588 H         1 MOL         0.0355
     59 H20        17.8355   10.2720   14.5584 H         1 MOL         0.0355
     60 H21        17.4572    8.8963   13.4670 H         1 MOL         0.0355
     61 H22        17.9104   11.5552   11.4663 H         1 MOL         0.0307
     62 H23        19.0068   11.2100   10.0860 H         1 MOL         0.0307
     63 H24        19.3719   12.5664   11.2056 H         1 MOL         0.0307
     64 H25        21.5088   11.5749   10.2358 H         1 MOL         0.0307
     65 H26        22.5190   10.0904   10.2833 H         1 MOL         0.0307
     66 H27        22.8810   11.4588   11.3892 H         1 MOL         0.0307
     67 H28        23.5877    9.2091   12.4648 H         1 MOL         0.0355
     68 H29        22.8528    7.7036   13.1128 H         1 MOL         0.0355
     69 H30        23.2242    9.0698   14.2184 H         1 MOL         0.0355
     70 H31        20.5450    9.8539   14.4753 H         1 MOL         0.0663
     71 H32        19.1442    8.1404   15.2830 H         1 MOL         0.0292
     72 H33        20.8443    8.4882   15.7468 H         1 MOL         0.0292
     73 H34        20.4762    7.1182   14.6448 H         1 MOL         0.0292
@<TRIPOS>BOND
     1    2    3 1  
     2   19    2 1  
     3    3    4 ar 
     4    5    3 ar 
     5    4    8 ar 
     6    5    6 ar 
     7    6    7 ar 
     8    7    8 ar 
     9    8    9 1  
    10    9   10 ar 
    11    9   12 ar 
    12   10   11 ar 
    13   11   14 ar 
    14   12   13 ar 
    15   13   14 ar 
    16   14   15 1  
    17   15   16 2  
    18   15   17 2  
    19   15   18 am 
    20   19   20 am 
    21   20   21 2  
    22   20   22 2  
    23   20   23 1  
    24   23   24 ar 
    25   23   28 ar 
    26   24   25 ar 
    27   25   26 ar 
    28   27   26 ar 
    29   28   27 ar 
    30   29   30 1  
    31   29   31 2  
    32   37   29 1  
    33   31   32 1  
    34   33   31 1  
    35   33   34 1  
    36   35   33 2  
    37   35   36 1  
    38   37   35 1  
    39   37   38 1  
    40   39    1 1  
    41   39    5 du 
    42   39   19 1  
    43   39   37 1  
    44    1   40 1  
    45    2   41 1  
    46    2   42 1  
    47    4   43 1  
    48    6   44 1  
    49    7   45 1  
    50   10   46 1  
    51   11   47 1  
    52   12   48 1  
    53   13   49 1  
    54   18   50 1  
    55   18   51 1  
    56   19   52 1  
    57   24   53 1  
    58   25   54 1  
    59   26   55 1  
    60   27   56 1  
    61   28   57 1  
    62   30   58 1  
    63   30   59 1  
    64   30   60 1  
    65   32   61 1  
    66   32   62 1  
    67   32   63 1  
    68   34   64 1  
    69   34   65 1  
    70   34   66 1  
    71   36   67 1  
    72   36   68 1  
    73   36   69 1  
    74   37   70 1  
    75   38   71 1  
    76   38   72 1  
    77   38   73 1  
@<TRIPOS>SUBSTRUCTURE
     1 MOL         1

