### 
### Created by X-TOOL on Fri Sep 26 17:34:55 2014
### 

@<TRIPOS>MOLECULE
4eg4_ligand
   20    19     1     0     0
SMALL
GAST_HUCK


@<TRIPOS>ATOM
      1 N           7.7340  -15.1970   55.5220 N.4       1 MET         0.2327
      2 CA          7.6280  -15.6500   54.1390 C.3       1 MET         0.0291
      3 C           9.0140  -15.9910   53.6050 C.2       1 MET         0.0844
      4 O          10.0700  -15.7750   54.2280 O.co2     1 MET        -0.5643
      5 CB          7.0380  -14.5560   53.2350 C.3       1 MET         0.0114
      6 CG          5.7860  -13.8340   53.7290 C.3       1 MET         0.0001
      7 SD          5.3630  -12.4140   52.6790 S.3       1 MET        -0.1638
      8 CE          3.7240  -11.9710   53.2560 C.3       1 MET        -0.0181
      9 OXT         9.1070  -16.4760   52.4760 O.co2     1 MET        -0.5643
     10 H           8.1279  -15.9441   56.0940 H         1 MET         0.2010
     11 H           8.3410  -14.3784   55.5648 H         1 MET         0.2010
     12 H           6.8070  -14.9530   55.8706 H         1 MET         0.2010
     13 H           6.9745  -16.5223   54.1289 H         1 MET         0.1024
     14 H           6.7420  -15.0622   52.3162 H         1 MET         0.0347
     15 H           7.8091  -13.7892   53.1602 H         1 MET         0.0347
     16 H           5.9786  -13.4676   54.7373 H         1 MET         0.0379
     17 H           4.9538  -14.5374   53.7034 H         1 MET         0.0379
     18 H           3.0498  -12.8157   53.1147 H         1 MET         0.0340
     19 H           3.7699  -11.7142   54.3143 H         1 MET         0.0340
     20 H           3.3595  -11.1147   52.6885 H         1 MET         0.0340
@<TRIPOS>BOND
     1    1    2 1  
     2    2    3 1  
     3    2    5 1  
     4    3    4 ar 
     5    3    9 ar 
     6    5    6 1  
     7    6    7 1  
     8    7    8 1  
     9    1   10 1  
    10    1   11 1  
    11    1   12 1  
    12    2   13 1  
    13    5   14 1  
    14    5   15 1  
    15    6   16 1  
    16    6   17 1  
    17    8   18 1  
    18    8   19 1  
    19    8   20 1  
@<TRIPOS>SUBSTRUCTURE
     1 MET         1

