### 
### Created by X-TOOL on Fri Sep 26 17:34:54 2014
### 

@<TRIPOS>MOLECULE
4elc_ligand
   13    12     1     0     0
SMALL
GAST_HUCK


@<TRIPOS>ATOM
      1 C1          5.6400    3.6620   34.1170 C.2       1 LMR         0.0650
      2 O1A         6.8640    3.7910   34.4280 O.co2     1 LMR        -0.5662
      3 O1B         5.1450    2.5550   33.7410 O.co2     1 LMR        -0.5662
      4 C2          4.7590    4.8800   34.1320 C.3       1 LMR         0.1185
      5 O2          5.5690    6.0200   34.2710 O.3       1 LMR        -0.3760
      6 C3          4.2750    4.9890   32.7120 C.3       1 LMR         0.0381
      7 C4          3.3680    6.1930   32.5280 C.2       1 LMR         0.0389
      8 O4A         3.6740    7.0170   31.6480 O.co2     1 LMR        -0.5688
      9 O4B         2.3090    6.3280   33.2090 O.co2     1 LMR        -0.5688
     10 H1          3.9560    4.8226   34.8816 H         1 LMR         0.0782
     11 H2          6.0564    5.9635   35.0845 H         1 LMR         0.2125
     12 H3          3.7168    4.0773   32.4529 H         1 LMR         0.0474
     13 H4          5.1434    5.0895   32.0443 H         1 LMR         0.0474
@<TRIPOS>BOND
     1    1    2 ar 
     2    1    3 ar 
     3    1    4 1  
     4    4    5 1  
     5    4    6 1  
     6    6    7 1  
     7    7    8 ar 
     8    7    9 ar 
     9    4   10 1  
    10    5   11 1  
    11    6   12 1  
    12    6   13 1  
@<TRIPOS>SUBSTRUCTURE
     1 LMR         1

