### 
### Created by X-TOOL on Sat Nov 28 15:59:40 2015
### 

@<TRIPOS>MOLECULE
4jmh_ligand
  145   149     1     0     0
SMALL
GAST_HUCK


@<TRIPOS>ATOM
      1 N         -41.5380  -19.3810    3.1860 N.4       1 HIS         0.2390
      2 CA        -41.3240  -20.6890    3.8030 C.3       1 HIS         0.0708
      3 C         -40.5750  -21.7330    2.9450 C.2       1 HIS         0.2282
      4 O         -40.2420  -22.8040    3.4470 O.2       1 HIS        -0.3906
      5 CB        -42.6360  -21.2700    4.3750 C.3       1 HIS         0.0347
      6 CG        -43.7380  -21.4170    3.3670 C.2       1 HIS         0.0005
      7 ND1       -43.5360  -21.9330    2.1030 N.2       1 HIS        -0.3251
      8 CD2       -45.0590  -21.1260    3.4480 C.2       1 HIS         0.0293
      9 CE1       -44.6830  -21.9440    1.4470 C.2       1 HIS         0.0907
     10 NE2       -45.6230  -21.4580    2.2380 N.pl3     1 HIS        -0.2752
     11 N         -40.2900  -21.4320    1.6790 N.am      1 HIS        -0.2608
     12 CA        -39.4780  -22.3420    0.8470 C.3       1 HIS         0.1332
     13 C         -38.0420  -21.8350    0.6330 C.2       1 HIS         0.2042
     14 O         -37.8350  -20.6570    0.3190 O.2       1 HIS        -0.3944
     15 CB        -40.1400  -22.5920   -0.5100 C.3       1 HIS         0.0045
     16 CG        -40.8920  -23.9010   -0.6000 C.3       1 HIS         0.0412
     17 CD        -41.1340  -24.3300   -2.0340 C.2       1 HIS         0.1737
     18 OE1       -41.3120  -23.4910   -2.9210 O.2       1 HIS        -0.3973
     19 NE2       -41.1270  -25.6450   -2.2740 N.am      1 HIS        -0.3009
     20 N         -37.0620  -22.7320    0.7800 N.am      1 HIS        -0.2607
     21 CA        -35.6400  -22.3560    0.7460 C.3       1 HIS         0.1468
     22 C         -34.8230  -23.0450   -0.3450 C.2       1 HIS         0.2076
     23 O         -34.9930  -24.2430   -0.5780 O.2       1 HIS        -0.3941
     24 CB        -34.9650  -22.6770    2.0870 C.3       1 HIS         0.0400
     25 CG        -35.5870  -21.9460    3.2510 C.ar      1 HIS        -0.0004
     26 CD1       -35.1780  -20.6520    3.5880 C.ar      1 HIS        -0.0239
     27 CD2       -36.5950  -22.5410    4.0060 C.ar      1 HIS        -0.0239
     28 CE1       -35.7510  -19.9840    4.6530 C.ar      1 HIS         0.0115
     29 CE2       -37.1770  -21.8740    5.0680 C.ar      1 HIS         0.0115
     30 CZ        -36.7610  -20.5940    5.3810 C.ar      1 HIS         0.1728
     31 OH        -37.3160  -19.9980    6.3980 O.3       1 HIS        -0.2040
     32 P         -37.7900  -18.4510    6.4300 P.3       1 HIS         0.1348
     33 O1P       -36.8830  -17.7390    7.3520 O.co2     1 HIS        -0.6653
     34 O2P       -39.2300  -18.4370    6.9850 O.co2     1 HIS        -0.6653
     35 O3P       -37.7590  -17.7610    5.0490 O.co2     1 HIS        -0.6653
     36 N         -33.9090  -22.2950   -0.9610 N.am      1 HIS        -0.2605
     37 CA        -33.0540  -22.7860   -2.0410 C.3       1 HIS         0.1468
     38 C         -32.2610  -24.0590   -1.7200 C.2       1 HIS         0.2075
     39 O         -31.9660  -24.8290   -2.6420 O.2       1 HIS        -0.3941
     40 CB        -32.0870  -21.6600   -2.3970 C.3       1 HIS         0.0400
     41 CG        -31.0720  -21.9390   -3.5040 C.ar      1 HIS        -0.0004
     42 CD1       -31.3410  -21.6120   -4.8300 C.ar      1 HIS        -0.0239
     43 CD2       -29.8190  -22.4560   -3.2080 C.ar      1 HIS        -0.0239
     44 CE1       -30.4070  -21.8330   -5.8260 C.ar      1 HIS         0.0115
     45 CE2       -28.8780  -22.6740   -4.1880 C.ar      1 HIS         0.0115
     46 CZ        -29.1750  -22.3630   -5.5020 C.ar      1 HIS         0.1728
     47 OH        -28.2730  -22.5650   -6.4300 O.3       1 HIS        -0.2040
     48 P         -27.7570  -24.0680   -6.7400 P.3       1 HIS         0.1348
     49 O1P       -26.9790  -24.0180   -7.9990 O.co2     1 HIS        -0.6653
     50 O2P       -29.0210  -24.9140   -6.8510 O.co2     1 HIS        -0.6653
     51 O3P       -26.8390  -24.5860   -5.6010 O.co2     1 HIS        -0.6653
     52 N         -31.9200  -24.2700   -0.4450 N.am      1 HIS        -0.2614
     53 CA        -31.1150  -25.4230   -0.0260 C.3       1 HIS         0.1476
     54 C         -31.9010  -26.4270    0.8090 C.2       1 HIS         0.2063
     55 O         -31.3140  -27.1550    1.6100 O.2       1 HIS        -0.3942
     56 CB        -29.8730  -24.9690    0.7510 C.3       1 HIS         0.0773
     57 CG        -30.2170  -24.3840    2.1120 C.2       1 HIS         0.1780
     58 OD1       -31.3070  -23.8420    2.3040 O.2       1 HIS        -0.3970
     59 ND2       -29.2880  -24.5050    3.0740 N.am      1 HIS        -0.3007
     60 N         -33.2200  -26.4650    0.6260 N.am      1 HIS        -0.2620
     61 CA        -34.0810  -27.4320    1.3230 C.3       1 HIS         0.1423
     62 C         -33.7580  -28.8890    0.9620 C.2       1 HIS         0.2057
     63 O         -33.0190  -29.1560    0.0160 O.2       1 HIS        -0.3943
     64 CB        -35.5560  -27.1520    1.0090 C.3       1 HIS         0.0406
     65 CG        -36.1870  -26.1380    1.9610 C.2       1 HIS         0.0393
     66 OD1       -35.8280  -26.1240    3.1580 O.co2     1 HIS        -0.5688
     67 OD2       -37.0540  -25.3640    1.5110 O.co2     1 HIS        -0.5688
     68 N         -34.3200  -29.8250    1.7260 N.am      1 HIS        -0.2618
     69 CA        -34.2760  -31.2470    1.3880 C.3       1 HIS         0.1406
     70 C         -35.5540  -31.6430    0.6890 C.2       1 HIS         0.2080
     71 O         -36.5520  -30.9270    0.7580 O.2       1 HIS        -0.3940
     72 CB        -34.1810  -32.1080    2.6440 C.3       1 HIS         0.0214
     73 CG        -33.0240  -31.7740    3.5160 C.ar      1 HIS        -0.0386
     74 CD1       -31.7350  -32.0150    3.0860 C.ar      1 HIS        -0.0601
     75 CD2       -33.2250  -31.2050    4.7700 C.ar      1 HIS        -0.0601
     76 CE1       -30.6620  -31.6850    3.8920 C.ar      1 HIS        -0.0686
     77 CE2       -32.1630  -30.8770    5.5790 C.ar      1 HIS        -0.0686
     78 CZ        -30.8810  -31.1170    5.1430 C.ar      1 HIS        -0.0687
     79 N         -35.5320  -32.7940    0.0080 N.am      1 HIS        -0.2530
     80 CA        -36.8080  -33.4410   -0.3030 C.3       1 HIS         0.1254
     81 C         -37.5030  -33.7960    1.0010 C.2       1 HIS         0.2151
     82 O         -36.7920  -34.2850    1.8900 O.co2     1 HIS        -0.4120
     83 CB        -36.3900  -34.7300   -1.0320 C.3       1 HIS        -0.0135
     84 CG        -34.9170  -34.8920   -0.7840 C.3       1 HIS        -0.0287
     85 CD        -34.3790  -33.5000   -0.5790 C.3       1 HIS         0.0363
     86 H         -42.0322  -18.7828    3.8295 H         1 HIS         0.2016
     87 H         -42.0819  -19.4913    2.3445 H         1 HIS         0.2016
     88 H         -40.6475  -18.9670    2.9587 H         1 HIS         0.2016
     89 H         -40.6697  -20.4986    4.6665 H         1 HIS         0.1116
     90 H         -42.9881  -20.6026    5.1753 H         1 HIS         0.0453
     91 H         -42.4186  -22.2632    4.7949 H         1 HIS         0.0453
     92 H         -45.5771  -20.7076    4.3097 H         1 HIS         0.0729
     93 H         -44.8289  -22.2946    0.4263 H         1 HIS         0.1199
     94 H         -46.6162  -21.3460    1.9893 H         1 HIS         0.2361
     95 H         -40.6308  -20.5777    1.2867 H         1 HIS         0.1885
     96 H         -39.4168  -23.3038    1.3773 H         1 HIS         0.0801
     97 H         -39.3563  -22.5904   -1.2819 H         1 HIS         0.0337
     98 H         -40.8481  -21.7731   -0.7047 H         1 HIS         0.0337
     99 H         -41.8634  -23.7859   -0.0968 H         1 HIS         0.0504
    100 H         -40.3060  -24.6810   -0.0919 H         1 HIS         0.0504
    101 H         -41.2812  -25.9848   -3.2018 H         1 HIS         0.1814
    102 H         -40.9676  -26.2890   -1.5258 H         1 HIS         0.1814
    103 H         -37.3039  -23.6925    0.9179 H         1 HIS         0.1886
    104 H         -35.5913  -21.2707    0.5738 H         1 HIS         0.0840
    105 H         -33.9041  -22.3937    2.0219 H         1 HIS         0.0584
    106 H         -35.0451  -23.7588    2.2695 H         1 HIS         0.0584
    107 H         -34.4021  -20.1672    3.0067 H         1 HIS         0.0703
    108 H         -36.9282  -23.5421    3.7572 H         1 HIS         0.0703
    109 H         -35.4129  -18.9887    4.9179 H         1 HIS         0.0736
    110 H         -37.9551  -22.3524    5.6517 H         1 HIS         0.0736
    111 H         -33.8022  -21.3447   -0.6685 H         1 HIS         0.1886
    112 H         -33.6930  -23.0025   -2.9098 H         1 HIS         0.0840
    113 H         -31.5235  -21.4068   -1.4869 H         1 HIS         0.0584
    114 H         -32.6880  -20.7932   -2.7092 H         1 HIS         0.0584
    115 H         -32.2998  -21.1763   -5.0867 H         1 HIS         0.0703
    116 H         -29.5752  -22.6942   -2.1790 H         1 HIS         0.0703
    117 H         -30.6418  -21.5910   -6.8562 H         1 HIS         0.0736
    118 H         -27.9093  -23.0872   -3.9312 H         1 HIS         0.0736
    119 H         -32.2248  -23.6179    0.2491 H         1 HIS         0.1885
    120 H         -30.7782  -25.9381   -0.9377 H         1 HIS         0.0826
    121 H         -29.3483  -24.2033    0.1607 H         1 HIS         0.0551
    122 H         -29.2121  -25.8361    0.8970 H         1 HIS         0.0551
    123 H         -29.4633  -24.1377    3.9874 H         1 HIS         0.1814
    124 H         -28.4208  -24.9624    2.8770 H         1 HIS         0.1814
    125 H         -33.6388  -25.8138   -0.0069 H         1 HIS         0.1884
    126 H         -33.9227  -27.3057    2.4042 H         1 HIS         0.0819
    127 H         -36.1153  -28.0964    1.0820 H         1 HIS         0.0478
    128 H         -35.6280  -26.7615   -0.0168 H         1 HIS         0.0478
    129 H         -34.7900  -29.5441    2.5628 H         1 HIS         0.1885
    130 H         -33.4112  -31.4392    0.7360 H         1 HIS         0.0823
    131 H         -34.0909  -33.1604    2.3368 H         1 HIS         0.0474
    132 H         -35.1042  -31.9739    3.2268 H         1 HIS         0.0474
    133 H         -31.5638  -32.4640    2.1143 H         1 HIS         0.0557
    134 H         -34.2355  -31.0173    5.1145 H         1 HIS         0.0557
    135 H         -29.6500  -31.8687    3.5496 H         1 HIS         0.0599
    136 H         -32.3347  -30.4328    6.5528 H         1 HIS         0.0599
    137 H         -30.0385  -30.8628    5.7760 H         1 HIS         0.0559
    138 H         -37.4516  -32.8061   -0.9296 H         1 HIS         0.0753
    139 O1        -38.7368  -33.6033    1.1691 O.co2     1 HIS        -0.4120
    140 H         -36.5876  -34.6396   -2.1103 H         1 HIS         0.0307
    141 H         -36.9417  -35.5921   -0.6291 H         1 HIS         0.0307
    142 H         -34.4326  -35.3659   -1.6505 H         1 HIS         0.0286
    143 H         -34.7448  -35.5050    0.1130 H         1 HIS         0.0286
    144 H         -33.5219  -33.5030    0.1105 H         1 HIS         0.0524
    145 H         -34.0793  -33.0453   -1.5347 H         1 HIS         0.0524
@<TRIPOS>BOND
     1    1    2 1  
     2    2    3 1  
     3    2    5 1  
     4    3    4 2  
     5    3   11 am 
     6    5    6 1  
     7    6    7 1  
     8    6    8 2  
     9    7    9 2  
    10    8   10 1  
    11    9   10 1  
    12   11   12 1  
    13   12   13 1  
    14   12   15 1  
    15   13   14 2  
    16   13   20 am 
    17   15   16 1  
    18   16   17 1  
    19   17   18 2  
    20   17   19 am 
    21   20   21 1  
    22   21   22 1  
    23   21   24 1  
    24   22   23 2  
    25   22   36 am 
    26   24   25 1  
    27   25   26 ar 
    28   25   27 ar 
    29   26   28 ar 
    30   27   29 ar 
    31   28   30 ar 
    32   29   30 ar 
    33   30   31 1  
    34   31   32 1  
    35   32   33 ar 
    36   32   34 ar 
    37   32   35 ar 
    38   36   37 1  
    39   37   38 1  
    40   37   40 1  
    41   38   39 2  
    42   38   52 am 
    43   40   41 1  
    44   41   42 ar 
    45   41   43 ar 
    46   42   44 ar 
    47   43   45 ar 
    48   44   46 ar 
    49   45   46 ar 
    50   46   47 1  
    51   47   48 1  
    52   48   49 ar 
    53   48   50 ar 
    54   48   51 ar 
    55   52   53 1  
    56   53   54 1  
    57   53   56 1  
    58   54   55 2  
    59   54   60 am 
    60   56   57 1  
    61   57   58 2  
    62   57   59 am 
    63   60   61 1  
    64   61   62 1  
    65   61   64 1  
    66   62   63 2  
    67   62   68 am 
    68   64   65 1  
    69   65   66 ar 
    70   65   67 ar 
    71   68   69 1  
    72   69   70 1  
    73   69   72 1  
    74   70   71 2  
    75   70   79 am 
    76   72   73 1  
    77   73   74 ar 
    78   73   75 ar 
    79   74   76 ar 
    80   75   77 ar 
    81   76   78 ar 
    82   77   78 ar 
    83   79   80 1  
    84   79   85 1  
    85   80   81 1  
    86   80   83 1  
    87   81   82 ar 
    88   83   84 1  
    89   84   85 1  
    90    1   86 1  
    91    1   87 1  
    92    1   88 1  
    93    2   89 1  
    94    5   90 1  
    95    5   91 1  
    96    8   92 1  
    97    9   93 1  
    98   10   94 1  
    99   11   95 1  
   100   12   96 1  
   101   15   97 1  
   102   15   98 1  
   103   16   99 1  
   104   16  100 1  
   105   19  101 1  
   106   19  102 1  
   107   20  103 1  
   108   21  104 1  
   109   24  105 1  
   110   24  106 1  
   111   26  107 1  
   112   27  108 1  
   113   28  109 1  
   114   29  110 1  
   115   36  111 1  
   116   37  112 1  
   117   40  113 1  
   118   40  114 1  
   119   42  115 1  
   120   43  116 1  
   121   44  117 1  
   122   45  118 1  
   123   52  119 1  
   124   53  120 1  
   125   56  121 1  
   126   56  122 1  
   127   59  123 1  
   128   59  124 1  
   129   60  125 1  
   130   61  126 1  
   131   64  127 1  
   132   64  128 1  
   133   68  129 1  
   134   69  130 1  
   135   72  131 1  
   136   72  132 1  
   137   74  133 1  
   138   75  134 1  
   139   76  135 1  
   140   77  136 1  
   141   78  137 1  
   142   80  138 1  
   143   81  139 ar 
   144   83  140 1  
   145   83  141 1  
   146   84  142 1  
   147   84  143 1  
   148   85  144 1  
   149   85  145 1  
@<TRIPOS>SUBSTRUCTURE
     1 HIS         1

