### 
### Created by X-TOOL on Sat Nov 28 16:06:05 2015
### 

@<TRIPOS>MOLECULE
4l4l_ligand
   66    70     1     0     0
SMALL
GAST_HUCK


@<TRIPOS>ATOM
      1 C4         15.3030    4.8030   -2.6760 C.ar      1 MOL         0.0892
      2 C7         14.8750    6.6050   -0.7940 C.ar      1 MOL         0.0864
      3 C8         15.3950    6.1820    0.4160 C.ar      1 MOL        -0.0433
      4 C10        16.4080    8.3170    0.7710 C.ar      1 MOL        -0.0209
      5 C13        17.2510    9.2430    1.6140 C.3       1 MOL         0.0639
      6 C15        15.5920   10.2730    3.0520 C.2       1 MOL         0.2181
      7 C17        15.5650   10.0220    5.5150 C.ar      1 MOL         0.0634
      8 C20        14.4160   10.4230    8.8360 C.2       1 MOL         0.1497
      9 C22        12.4050   11.8870    8.6320 C.3       1 MOL         0.2158
     10 C24        11.1180   11.0960    8.3060 C.3       1 MOL         0.1420
     11 F1         18.1780    2.6920   -1.9720 F         1 MOL        -0.1844
     12 C2         17.3050    3.4740   -2.6450 C.ar      1 MOL         0.1325
     13 C3         16.2070    4.0090   -1.9930 C.ar      1 MOL        -0.0071
     14 S5         13.9380    5.4760   -1.7860 S.o2      1 MOL         0.0204
     15 O6         13.4460    4.4410   -0.9430 O.2       1 MOL        -0.1653
     16 C9         16.1550    7.0320    1.1970 C.ar      1 MOL        -0.0566
     17 C11        15.9060    8.7420   -0.4480 C.ar      1 MOL        -0.0566
     18 C12        15.1470    7.8890   -1.2320 C.ar      1 MOL        -0.0433
     19 N14        16.6920    9.5090    2.9370 N.am      1 MOL        -0.2743
     20 C16        15.0120   10.5530    4.3780 C.ar      1 MOL         0.1108
     21 N18        15.0080   10.2760    6.7320 N.ar      1 MOL        -0.2440
     22 C19        15.3260    9.8770    8.0050 C.2       1 MOL         0.1014
     23 N21        13.5570   11.1450    8.1120 N.pl3     1 MOL        -0.1549
     24 O25        10.5620   11.5060    7.0570 O.3       1 MOL        -0.3832
     25 C27        10.1930   11.5290    9.4440 C.3       1 MOL         0.1152
     26 O28         9.6640   12.8250    9.1500 O.3       1 MOL        -0.3864
     27 C30        11.1830   11.5680   10.6280 C.3       1 MOL         0.1185
     28 C31        11.3210   10.1730   11.2470 C.3       1 MOL         0.1072
     29 O32        10.0970    9.4510   11.0920 O.3       1 MOL        -0.2734
     30 P33         9.1330    9.0780   12.3260 P.3       1 MOL         0.2008
     31 O34         9.9630    8.2650   13.3720 O.co2     1 MOL        -0.5537
     32 O35         8.5740   10.4030   12.9410 O.co2     1 MOL        -0.5537
     33 O36         7.9480    8.1830   11.8310 O.co2     1 MOL        -0.5537
     34 O38        12.4620   11.9790   10.0770 O.3       1 MOL        -0.3336
     35 C39        13.8900   11.0670    6.8330 C.ar      1 MOL         0.2010
     36 C40        13.3170   11.6320    5.6710 C.ar      1 MOL         0.0400
     37 C41        13.8660   11.3800    4.4590 C.ar      1 MOL         0.0096
     38 O42        15.0540   10.7150    2.0570 O.2       1 MOL        -0.3841
     39 O43        13.1210    6.2000   -2.6910 O.2       1 MOL        -0.1653
     40 C44        15.5070    5.0880   -4.0150 C.ar      1 MOL        -0.0071
     41 C45        16.6070    4.5530   -4.6670 C.ar      1 MOL         0.1325
     42 F46        16.8120    4.8160   -5.9750 F         1 MOL        -0.1844
     43 C47        17.5030    3.7480   -3.9840 C.ar      1 MOL         0.0052
     44 H          15.2039    5.1706    0.7561 H         1 MOL         0.0618
     45 H          17.3527   10.2003    1.0817 H         1 MOL         0.0683
     46 H          18.2440    8.7875    1.7424 H         1 MOL         0.0683
     47 H          16.4526    9.3950    5.4448 H         1 MOL         0.1308
     48 H          14.3862   10.2965    9.9172 H         1 MOL         0.1661
     49 H          12.3725   12.8910    8.1838 H         1 MOL         0.1041
     50 H          11.2950   10.0103    8.3057 H         1 MOL         0.0680
     51 H          16.0545    3.8042   -0.9395 H         1 MOL         0.0588
     52 H          16.5520    6.6872    2.1449 H         1 MOL         0.0558
     53 H          16.1088    9.7501   -0.7911 H         1 MOL         0.0558
     54 H          14.7660    8.2274   -2.1888 H         1 MOL         0.0618
     55 H          17.1251    9.1250    3.7525 H         1 MOL         0.1871
     56 H          16.1595    9.2374    8.2914 H         1 MOL         0.1291
     57 H           9.7741   11.0047    6.8826 H         1 MOL         0.2101
     58 H           9.3755   10.8136    9.6166 H         1 MOL         0.0648
     59 H           9.1751   12.7891    8.3362 H         1 MOL         0.2100
     60 H          10.8421   12.2833   11.3910 H         1 MOL         0.0650
     61 H          11.5546   10.2700   12.3175 H         1 MOL         0.0639
     62 H          12.1326    9.6283   10.7425 H         1 MOL         0.0639
     63 H          12.4366   12.2681    5.7501 H         1 MOL         0.0947
     64 H          13.4310   11.8085    3.5573 H         1 MOL         0.0998
     65 H          14.8117    5.7249   -4.5498 H         1 MOL         0.0588
     66 H          18.3606    3.3325   -4.5008 H         1 MOL         0.0590
@<TRIPOS>BOND
     1    1   13 ar 
     2   14    1 1  
     3    1   40 ar 
     4    3    2 ar 
     5    2   14 1  
     6   18    2 ar 
     7   16    3 ar 
     8    5    4 1  
     9    4   16 ar 
    10    4   17 ar 
    11   19    5 1  
    12    6   19 am 
    13   20    6 1  
    14    6   38 2  
    15    7   20 ar 
    16   21    7 ar 
    17   22    8 2  
    18    8   23 1  
    19    9   10 1  
    20   23    9 1  
    21    9   34 1  
    22   10   24 1  
    23   10   25 1  
    24   12   11 1  
    25   13   12 ar 
    26   12   43 ar 
    27   14   15 2  
    28   14   39 2  
    29   17   18 ar 
    30   20   37 ar 
    31   21   22 1  
    32   21   35 ar 
    33   23   35 1  
    34   25   26 1  
    35   25   27 1  
    36   27   28 1  
    37   27   34 1  
    38   28   29 1  
    39   29   30 1  
    40   30   31 ar 
    41   30   32 ar 
    42   30   33 ar 
    43   35   36 ar 
    44   36   37 ar 
    45   40   41 ar 
    46   41   42 1  
    47   41   43 ar 
    48    3   44 1  
    49    5   45 1  
    50    5   46 1  
    51    7   47 1  
    52    8   48 1  
    53    9   49 1  
    54   10   50 1  
    55   13   51 1  
    56   16   52 1  
    57   17   53 1  
    58   18   54 1  
    59   19   55 1  
    60   22   56 1  
    61   24   57 1  
    62   25   58 1  
    63   26   59 1  
    64   27   60 1  
    65   28   61 1  
    66   28   62 1  
    67   36   63 1  
    68   37   64 1  
    69   40   65 1  
    70   43   66 1  
@<TRIPOS>SUBSTRUCTURE
     1 MOL         1

