### 
### Created by X-TOOL on Sat Nov 28 16:08:47 2015
### 

@<TRIPOS>MOLECULE
4p4s_ligand
   47    49     1     0     0
SMALL
GAST_HUCK


@<TRIPOS>ATOM
      1 PG         31.2620   -2.2650   -0.8250 P.3       1 GCP         0.0781
      2 O1G        31.3860   -2.1310   -2.4320 O.co2     1 GCP        -0.5611
      3 O2G        31.1040   -0.9040   -0.2930 O.co2     1 GCP        -0.5611
      4 O3G        32.6540   -2.8820   -0.3260 O.co2     1 GCP        -0.5611
      5 C3B        29.8940   -3.3940   -0.2780 C.3       1 GCP         0.1130
      6 PB         28.2560   -2.9360   -0.9230 P.3       1 GCP         0.1787
      7 O1B        28.2300   -3.0110   -2.4340 O.co2     1 GCP        -0.6143
      8 O2B        27.8300   -1.4370   -0.4440 O.co2     1 GCP        -0.6143
      9 O3A        27.1860   -3.9730   -0.3960 O.3       1 GCP        -0.1584
     10 PA         27.2430   -5.4850   -0.8950 P.3       1 GCP         0.2952
     11 O1A        26.5160   -5.5210   -2.2160 O.co2     1 GCP        -0.6125
     12 O2A        28.6590   -5.9360   -0.5770 O.co2     1 GCP        -0.6125
     13 O5'        26.3870   -6.2610    0.2200 O.3       1 GCP        -0.2475
     14 C5'        26.6760   -5.8900    1.5840 C.3       1 GCP         0.1128
     15 C4'        26.5050   -7.0060    2.5750 C.3       1 GCP         0.1190
     16 O4'        25.2850   -6.8210    3.2830 O.3       1 GCP        -0.3347
     17 C3'        26.4010   -8.3710    1.9860 C.3       1 GCP         0.1151
     18 O3'        27.0190   -9.2760    2.8960 O.3       1 GCP        -0.3864
     19 C2'        24.9080   -8.6800    1.8890 C.3       1 GCP         0.1407
     20 O2'        24.5150  -10.0570    2.1110 O.3       1 GCP        -0.3835
     21 C1'        24.2970   -7.7930    2.9510 C.3       1 GCP         0.2218
     22 N9         23.0200   -7.2450    2.4250 N.pl3     1 GCP        -0.0954
     23 C8         22.8170   -6.5640    1.3010 C.2       1 GCP         0.1855
     24 N7         21.5110   -6.2620    1.1880 N.2       1 GCP        -0.1929
     25 C5         20.8490   -6.7920    2.2360 C.2       1 GCP         0.2558
     26 C6         19.4350   -6.8930    2.7380 C.2       1 GCP         0.2628
     27 O6         18.5010   -6.3530    2.0760 O.2       1 GCP        -0.3594
     28 N1         19.2350   -7.5480    3.9120 N.am      1 GCP        -0.2478
     29 C2         20.2510   -8.0990    4.5890 C.cat     1 GCP         0.2041
     30 N2         20.0760   -8.7510    5.7330 N.pl3     1 GCP        -0.3327
     31 N3         21.5180   -8.0480    4.1800 N.pl3     1 GCP        -0.1901
     32 C4         21.8730   -7.4220    3.0460 C.2       1 GCP         0.3268
     33 H          29.8502   -3.3775    0.8210 H         1 GCP         0.0680
     34 H          30.1283   -4.4128   -0.6204 H         1 GCP         0.0680
     35 H          26.0011   -5.0694    1.8687 H         1 GCP         0.0648
     36 H          27.7182   -5.5415    1.6334 H         1 GCP         0.0648
     37 H          27.3567   -6.9802    3.2706 H         1 GCP         0.0651
     38 H          26.8805   -8.4218    0.9973 H         1 GCP         0.0648
     39 H          26.9685  -10.1581    2.5470 H         1 GCP         0.2100
     40 H          24.5471   -8.3862    0.8923 H         1 GCP         0.0677
     41 H          23.5718  -10.1334    2.0270 H         1 GCP         0.2101
     42 H          24.0720   -8.3847    3.8506 H         1 GCP         0.1021
     43 H          23.5891   -6.2926    0.5826 H         1 GCP         0.1823
     44 H          18.3076   -7.6203    4.2790 H         1 GCP         0.1819
     45 H          20.8852   -9.1599    6.2217 H         1 GCP         0.1774
     46 H          19.1311   -8.8476    6.1314 H         1 GCP         0.1774
     47 H          22.2462   -8.5017    4.7499 H         1 GCP         0.2519
@<TRIPOS>BOND
     1    1    2 ar 
     2    1    3 ar 
     3    1    4 ar 
     4    1    5 1  
     5    5    6 1  
     6    6    7 ar 
     7    6    8 ar 
     8    6    9 1  
     9    9   10 1  
    10   10   11 ar 
    11   10   12 ar 
    12   10   13 1  
    13   13   14 1  
    14   14   15 1  
    15   15   16 1  
    16   15   17 1  
    17   16   21 1  
    18   17   18 1  
    19   17   19 1  
    20   19   20 1  
    21   19   21 1  
    22   21   22 1  
    23   22   23 1  
    24   22   32 1  
    25   23   24 2  
    26   24   25 1  
    27   25   26 1  
    28   25   32 2  
    29   26   27 2  
    30   26   28 am 
    31   28   29 ar 
    32   29   30 ar 
    33   29   31 ar 
    34   31   32 1  
    35    5   33 1  
    36    5   34 1  
    37   14   35 1  
    38   14   36 1  
    39   15   37 1  
    40   17   38 1  
    41   18   39 1  
    42   19   40 1  
    43   20   41 1  
    44   21   42 1  
    45   23   43 1  
    46   28   44 1  
    47   30   45 1  
    48   30   46 1  
    49   31   47 1  
@<TRIPOS>SUBSTRUCTURE
     1 GCP         1

