### 
### Created by X-TOOL on Sun Nov 13 14:28:45 2016
### 

@<TRIPOS>MOLECULE
4zj5_ligand
  162   165     1     0     0
SMALL
GAST_HUCK


@<TRIPOS>ATOM
      1 N         -33.3250  -10.9280   -2.3570 N.4       1 CYS         0.2385
      2 CA        -32.9800  -11.9430   -3.3160 C.3       1 CYS         0.0751
      3 C         -34.1850  -12.6610   -3.8860 C.2       1 CYS         0.2300
      4 O         -35.1460  -12.9220   -3.2280 O.2       1 CYS        -0.3905
      5 CB        -31.9850  -12.9360   -2.7600 C.3       1 CYS         0.0643
      6 SG        -32.5640  -13.6060   -1.2380 S.3       1 CYS        -0.0848
      7 N         -34.0290  -12.9770   -5.2440 N.am      1 CYS        -0.2471
      8 CA        -35.2150  -13.5980   -5.8640 C.3       1 CYS         0.1339
      9 C         -35.6940  -14.9780   -5.3950 C.2       1 CYS         0.2041
     10 O         -34.9490  -15.6970   -4.7730 O.2       1 CYS        -0.3944
     11 CB        -34.7950  -13.8070   -7.3010 C.3       1 CYS        -0.0104
     12 CG        -33.7390  -12.8750   -7.5800 C.3       1 CYS        -0.0281
     13 CD        -32.9700  -12.8050   -6.3560 C.3       1 CYS         0.0371
     14 N         -36.9170  -15.3320   -5.8060 N.am      1 CYS        -0.2637
     15 CA        -37.5650  -16.6040   -5.4750 C.3       1 CYS         0.1310
     16 C         -36.7200  -17.8510   -5.7810 C.2       1 CYS         0.2039
     17 O         -36.8030  -18.8410   -5.0580 O.2       1 CYS        -0.3944
     18 CB        -38.9340  -16.6830   -6.2050 C.3       1 CYS        -0.0122
     19 CG        -39.3150  -18.0280   -6.8210 C.3       1 CYS        -0.0440
     20 CD        -40.6210  -17.9390   -7.6090 C.3       1 CYS        -0.0124
     21 CE        -40.4060  -17.4410   -9.0340 C.3       1 CYS        -0.0354
     22 NZ        -41.6760  -17.3680   -9.8180 N.4       1 CYS         0.2185
     23 N         -35.9390  -17.8100   -6.8570 N.am      1 CYS        -0.2637
     24 CA        -35.1510  -18.9760   -7.2710 C.3       1 CYS         0.1311
     25 C         -33.9960  -19.2580   -6.3030 C.2       1 CYS         0.2040
     26 O         -33.5190  -20.3930   -6.2130 O.2       1 CYS        -0.3944
     27 CB        -34.6440  -18.8210   -8.7100 C.3       1 CYS        -0.0092
     28 CG        -33.6850  -17.6680   -8.9480 C.3       1 CYS        -0.0156
     29 CD        -33.4940  -17.4310  -10.4350 C.3       1 CYS         0.0627
     30 NE        -32.4600  -16.4350  -10.7050 N.pl3     1 CYS        -0.2723
     31 CZ        -32.6570  -15.1180  -10.7440 C.cat     1 CYS         0.2882
     32 NH1       -33.8660  -14.5970  -10.5290 N.pl3     1 CYS        -0.2849
     33 NH2       -31.6340  -14.3120  -10.9980 N.pl3     1 CYS        -0.2849
     34 N         -33.5440  -18.2700   -5.5530 N.am      1 CYS        -0.2619
     35 CA        -32.5200  -18.5300   -4.5450 C.3       1 CYS         0.1404
     36 C         -32.9530  -19.2120   -3.2390 C.2       1 CYS         0.2059
     37 O         -34.1070  -19.3200   -2.9810 O.2       1 CYS        -0.3942
     38 CB        -31.7070  -17.2950   -4.2950 C.3       1 CYS         0.0214
     39 CG        -30.9790  -16.8460   -5.4970 C.ar      1 CYS        -0.0386
     40 CD1       -31.5810  -16.0380   -6.4050 C.ar      1 CYS        -0.0601
     41 CD2       -29.7210  -17.2810   -5.7500 C.ar      1 CYS        -0.0601
     42 CE1       -30.9320  -15.6590   -7.5300 C.ar      1 CYS        -0.0686
     43 CE2       -29.0610  -16.8950   -6.8640 C.ar      1 CYS        -0.0686
     44 CZ        -29.6740  -16.0870   -7.7660 C.ar      1 CYS        -0.0687
     45 N         -32.0710  -19.8740   -2.5080 N.am      1 CYS        -0.2639
     46 CA        -32.4900  -20.8000   -1.4980 C.3       1 CYS         0.1282
     47 C         -32.4480  -20.3370   -0.0410 C.2       1 CYS         0.2036
     48 O         -32.8380  -21.0370    0.8350 O.2       1 CYS        -0.3944
     49 CB        -31.8080  -22.1600   -1.6950 C.3       1 CYS        -0.0244
     50 N         -32.0650  -19.0840    0.1530 N.am      1 CYS        -0.2640
     51 CA        -32.0900  -18.5290    1.4710 C.3       1 CYS         0.1282
     52 C         -33.5130  -18.3660    1.9360 C.2       1 CYS         0.2036
     53 O         -34.3570  -18.3190    1.1810 O.2       1 CYS        -0.3944
     54 CB        -31.2860  -17.2650    1.5780 C.3       1 CYS        -0.0244
     55 N         -33.7160  -18.4030    3.2290 N.am      1 CYS        -0.2637
     56 CA        -35.0100  -18.6450    3.7780 C.3       1 CYS         0.1312
     57 C         -35.8770  -17.4850    3.4510 C.2       1 CYS         0.2040
     58 O         -37.0660  -17.5450    3.4840 O.2       1 CYS        -0.3944
     59 CB        -34.9270  -18.8750    5.2610 C.3       1 CYS        -0.0101
     60 CG        -34.1740  -20.1510    5.5450 C.3       1 CYS        -0.0425
     61 CD1       -34.3110  -20.3960    7.0170 C.3       1 CYS        -0.0625
     62 CD2       -34.7030  -21.3350    4.8070 C.3       1 CYS        -0.0625
     63 N         -35.2360  -16.3770    3.2740 N.am      1 CYS        -0.2619
     64 CA        -36.1140  -15.2320    3.0480 C.3       1 CYS         0.1404
     65 C         -36.1120  -14.7050    1.6230 C.2       1 CYS         0.2054
     66 O         -36.6010  -13.6390    1.3530 O.2       1 CYS        -0.3942
     67 CB        -35.8990  -14.1420    4.0890 C.3       1 CYS         0.0214
     68 CG        -36.1240  -14.6200    5.4960 C.ar      1 CYS        -0.0386
     69 CD1       -35.1120  -15.2040    6.2070 C.ar      1 CYS        -0.0601
     70 CD2       -37.3550  -14.5020    6.0900 C.ar      1 CYS        -0.0601
     71 CE1       -35.3150  -15.6550    7.4890 C.ar      1 CYS        -0.0686
     72 CE2       -37.5700  -14.9430    7.3680 C.ar      1 CYS        -0.0686
     73 CZ        -36.5550  -15.5290    8.0670 C.ar      1 CYS        -0.0687
     74 N         -35.5870  -15.4940    0.7090 N.am      1 CYS        -0.2685
     75 CA        -35.4890  -15.0790   -0.6470 C.3       1 CYS         0.1041
     76 C         -36.8500  -15.0260   -1.2510 C.2       1 CYS         0.0609
     77 O         -37.5800  -15.9540   -1.1010 O.co2     1 CYS        -0.5666
     78 CB        -34.6250  -16.0560   -1.3910 C.3       1 CYS         0.0388
     79 SG        -32.9170  -15.7990   -0.9260 S.3       1 CYS        -0.0887
     80 OXT       -37.1670  -14.0570   -1.8660 O.co2     1 CYS        -0.5666
     81 H1        -32.4844  -10.4885   -2.0158 H         1 CYS         0.2015
     82 H2        -33.8209  -11.3483   -1.5866 H         1 CYS         0.2015
     83 H3        -33.9114  -10.2359   -2.7965 H         1 CYS         0.2015
     84 H4        -32.4888  -11.4281   -4.1548 H         1 CYS         0.1107
     85 H5        -31.0242  -12.4283   -2.5894 H         1 CYS         0.0466
     86 H6        -31.8451  -13.7519   -3.4843 H         1 CYS         0.0466
     87 H7        -36.0577  -12.8954   -5.7849 H         1 CYS         0.0802
     88 H8        -35.6466  -13.6221   -7.9722 H         1 CYS         0.0313
     89 H9        -34.4343  -14.8367   -7.4413 H         1 CYS         0.0313
     90 H10       -34.1516  -11.8876   -7.8346 H         1 CYS         0.0287
     91 H11       -33.1135  -13.2360   -8.4097 H         1 CYS         0.0287
     92 H12       -32.2244  -13.6127   -6.3152 H         1 CYS         0.0524
     93 H13       -32.4629  -11.8329   -6.2671 H         1 CYS         0.0524
     94 H14       -37.4227  -14.6854   -6.3772 H         1 CYS         0.1883
     95 H15       -37.7550  -16.6017   -4.3916 H         1 CYS         0.0800
     96 H16       -38.9216  -15.9388   -7.0149 H         1 CYS         0.0312
     97 H17       -39.7144  -16.4189   -5.4762 H         1 CYS         0.0312
     98 H18       -39.4343  -18.7679   -6.0158 H         1 CYS         0.0269
     99 H19       -38.5109  -18.3502   -7.4989 H         1 CYS         0.0269
    100 H20       -41.2999  -17.2456   -7.0910 H         1 CYS         0.0317
    101 H21       -41.0784  -18.9386   -7.6492 H         1 CYS         0.0317
    102 H22       -39.7155  -18.1273   -9.5461 H         1 CYS         0.0813
    103 H23       -39.9603  -16.4362   -8.9920 H         1 CYS         0.0813
    104 H24       -41.4778  -17.0345  -10.7484 H         1 CYS         0.1994
    105 H25       -42.3156  -16.7353   -9.3634 H         1 CYS         0.1994
    106 H26       -42.0913  -18.2849   -9.8712 H         1 CYS         0.1994
    107 H27       -35.8881  -16.9680   -7.3941 H         1 CYS         0.1883
    108 H28       -35.8195  -19.8492   -7.2480 H         1 CYS         0.0800
    109 H29       -35.5174  -18.6747   -9.3625 H         1 CYS         0.0313
    110 H30       -34.1294  -19.7521   -8.9895 H         1 CYS         0.0313
    111 H31       -32.7127  -17.9063   -8.4920 H         1 CYS         0.0301
    112 H32       -34.0932  -16.7569   -8.4862 H         1 CYS         0.0301
    113 H33       -34.4446  -17.0802  -10.8631 H         1 CYS         0.0689
    114 H34       -33.2054  -18.3797  -10.9111 H         1 CYS         0.0689
    115 H35       -31.5043  -16.7776  -10.8787 H         1 CYS         0.2642
    116 H36       -34.0004  -13.5764  -10.5629 H         1 CYS         0.2615
    117 H37       -34.6651  -15.2153  -10.3290 H         1 CYS         0.2615
    118 H38       -30.6971  -14.7060  -11.1652 H         1 CYS         0.2615
    119 H39       -31.7768  -13.2924  -11.0280 H         1 CYS         0.2615
    120 H40       -33.9025  -17.3445   -5.6751 H         1 CYS         0.1885
    121 H41       -31.8368  -19.2508   -5.0180 H         1 CYS         0.0823
    122 H42       -30.9776  -17.5076   -3.4996 H         1 CYS         0.0474
    123 H43       -32.3807  -16.4890   -3.9689 H         1 CYS         0.0474
    124 H44       -32.5929  -15.6922   -6.2274 H         1 CYS         0.0557
    125 H45       -29.2363  -17.9493   -5.0475 H         1 CYS         0.0557
    126 H46       -31.4243  -15.0092   -8.2445 H         1 CYS         0.0599
    127 H47       -28.0446  -17.2298   -7.0369 H         1 CYS         0.0599
    128 H48       -29.1565  -15.7874   -8.6701 H         1 CYS         0.0559
    129 H49       -31.0943  -19.7254   -2.6632 H         1 CYS         0.1883
    130 H50       -33.5580  -20.9686   -1.7002 H         1 CYS         0.0797
    131 H51       -32.1427  -22.8550   -0.9108 H         1 CYS         0.0277
    132 H52       -30.7168  -22.0354   -1.6332 H         1 CYS         0.0277
    133 H53       -32.0755  -22.5648   -2.6822 H         1 CYS         0.0277
    134 H54       -31.7593  -18.5277   -0.6197 H         1 CYS         0.1883
    135 H55       -31.6141  -19.2608    2.1403 H         1 CYS         0.0797
    136 H56       -31.3395  -16.8826    2.6080 H         1 CYS         0.0277
    137 H57       -31.6920  -16.5125    0.8860 H         1 CYS         0.0277
    138 H58       -30.2377  -17.4741    1.3185 H         1 CYS         0.0277
    139 H59       -32.9438  -18.2578    3.8476 H         1 CYS         0.1883
    140 H60       -35.4335  -19.5469    3.3119 H         1 CYS         0.0800
    141 H61       -35.9432  -18.9522    5.6749 H         1 CYS         0.0315
    142 H62       -34.4025  -18.0304    5.7316 H         1 CYS         0.0315
    143 H63       -33.1154  -20.0140    5.2794 H         1 CYS         0.0298
    144 H64       -33.7783  -21.3200    7.2860 H         1 CYS         0.0232
    145 H65       -35.3756  -20.4984    7.2742 H         1 CYS         0.0232
    146 H66       -33.8796  -19.5495    7.5713 H         1 CYS         0.0232
    147 H67       -34.6070  -21.1652    3.7244 H         1 CYS         0.0232
    148 H68       -35.7627  -21.4828    5.0623 H         1 CYS         0.0232
    149 H69       -34.1293  -22.2298    5.0900 H         1 CYS         0.0232
    150 H70       -34.2384  -16.3102    3.2902 H         1 CYS         0.1885
    151 H71       -37.1344  -15.6074    3.2152 H         1 CYS         0.0823
    152 H72       -36.5979  -13.3180    3.8830 H         1 CYS         0.0474
    153 H73       -34.8652  -13.7758    4.0045 H         1 CYS         0.0474
    154 H74       -34.1342  -15.3128    5.7519 H         1 CYS         0.0557
    155 H75       -38.1718  -14.0516    5.5376 H         1 CYS         0.0557
    156 H76       -34.5002  -16.1083    8.0420 H         1 CYS         0.0599
    157 H77       -38.5462  -14.8267    7.8246 H         1 CYS         0.0599
    158 H78       -36.7263  -15.8933    9.0735 H         1 CYS         0.0559
    159 H79       -35.2522  -16.3987    0.9727 H         1 CYS         0.1876
    160 H80       -35.0327  -14.0792   -0.6937 H         1 CYS         0.0734
    161 H81       -34.7396  -15.8990   -2.4737 H         1 CYS         0.0425
    162 H82       -34.9258  -17.0827   -1.1355 H         1 CYS         0.0425
@<TRIPOS>BOND
     1    1    2 1  
     2    2    3 1  
     3    2    5 1  
     4    3    4 2  
     5    3    7 am 
     6    5    6 1  
     7    6   79 1  
     8    7    8 1  
     9    7   13 1  
    10    8    9 1  
    11    8   11 1  
    12    9   10 2  
    13    9   14 am 
    14   11   12 1  
    15   12   13 1  
    16   14   15 1  
    17   15   16 1  
    18   15   18 1  
    19   16   17 2  
    20   16   23 am 
    21   18   19 1  
    22   19   20 1  
    23   20   21 1  
    24   21   22 1  
    25   23   24 1  
    26   24   25 1  
    27   24   27 1  
    28   25   26 2  
    29   25   34 am 
    30   27   28 1  
    31   28   29 1  
    32   29   30 1  
    33   30   31 ar 
    34   31   32 ar 
    35   31   33 ar 
    36   34   35 1  
    37   35   36 1  
    38   35   38 1  
    39   36   37 2  
    40   36   45 am 
    41   38   39 1  
    42   39   40 ar 
    43   39   41 ar 
    44   40   42 ar 
    45   41   43 ar 
    46   42   44 ar 
    47   43   44 ar 
    48   45   46 1  
    49   46   47 1  
    50   46   49 1  
    51   47   48 2  
    52   47   50 am 
    53   50   51 1  
    54   51   52 1  
    55   51   54 1  
    56   52   53 2  
    57   52   55 am 
    58   55   56 1  
    59   56   57 1  
    60   56   59 1  
    61   57   58 2  
    62   57   63 am 
    63   59   60 1  
    64   60   61 1  
    65   60   62 1  
    66   63   64 1  
    67   64   65 1  
    68   64   67 1  
    69   65   66 2  
    70   65   74 am 
    71   67   68 1  
    72   68   69 ar 
    73   68   70 ar 
    74   69   71 ar 
    75   70   72 ar 
    76   71   73 ar 
    77   72   73 ar 
    78   74   75 1  
    79   75   76 1  
    80   75   78 1  
    81   76   77 ar 
    82   76   80 ar 
    83   78   79 1  
    84    1   81 1  
    85    1   82 1  
    86    1   83 1  
    87    2   84 1  
    88    5   85 1  
    89    5   86 1  
    90    8   87 1  
    91   11   88 1  
    92   11   89 1  
    93   12   90 1  
    94   12   91 1  
    95   13   92 1  
    96   13   93 1  
    97   14   94 1  
    98   15   95 1  
    99   18   96 1  
   100   18   97 1  
   101   19   98 1  
   102   19   99 1  
   103   20  100 1  
   104   20  101 1  
   105   21  102 1  
   106   21  103 1  
   107   22  104 1  
   108   22  105 1  
   109   22  106 1  
   110   23  107 1  
   111   24  108 1  
   112   27  109 1  
   113   27  110 1  
   114   28  111 1  
   115   28  112 1  
   116   29  113 1  
   117   29  114 1  
   118   30  115 1  
   119   32  116 1  
   120   32  117 1  
   121   33  118 1  
   122   33  119 1  
   123   34  120 1  
   124   35  121 1  
   125   38  122 1  
   126   38  123 1  
   127   40  124 1  
   128   41  125 1  
   129   42  126 1  
   130   43  127 1  
   131   44  128 1  
   132   45  129 1  
   133   46  130 1  
   134   49  131 1  
   135   49  132 1  
   136   49  133 1  
   137   50  134 1  
   138   51  135 1  
   139   54  136 1  
   140   54  137 1  
   141   54  138 1  
   142   55  139 1  
   143   56  140 1  
   144   59  141 1  
   145   59  142 1  
   146   60  143 1  
   147   61  144 1  
   148   61  145 1  
   149   61  146 1  
   150   62  147 1  
   151   62  148 1  
   152   62  149 1  
   153   63  150 1  
   154   64  151 1  
   155   67  152 1  
   156   67  153 1  
   157   69  154 1  
   158   70  155 1  
   159   71  156 1  
   160   72  157 1  
   161   73  158 1  
   162   74  159 1  
   163   75  160 1  
   164   78  161 1  
   165   78  162 1  
@<TRIPOS>SUBSTRUCTURE
     1 CYS         1

