### 
### Created by X-TOOL on Fri Sep 26 17:34:13 2014
### 

@<TRIPOS>MOLECULE
1shc_ligand
  196   199     1     0     0
SMALL
GAST_HUCK


@<TRIPOS>ATOM
      1 N          -1.3960    5.9520   -8.2680 N.4       1 MOL         0.2394
      2 CA         -1.6090    4.8990   -7.2350 C.3       1 MOL         0.0761
      3 C          -0.4890    4.9690   -6.1940 C.2       1 MOL         0.2288
      4 O          -0.1210    3.9780   -5.5960 O.2       1 MOL        -0.3905
      5 CB         -1.6000    3.5220   -7.9020 C.3       1 MOL         0.0628
      6 CG         -2.9420    3.2600   -8.5290 C.2       1 MOL         0.0593
      7 ND1        -4.1300    3.5710   -7.8870 N.pl3     1 MOL        -0.2622
      8 CD2        -3.3000    2.7190   -9.7390 C.2       1 MOL        -0.0274
      9 CE1        -5.1380    3.2180   -8.7060 C.2       1 MOL         0.0875
     10 NE2        -4.6870    2.6930   -9.8490 N.2       1 MOL        -0.3437
     11 H1         -2.1341    5.9049   -8.9529 H         1 MOL         0.2017
     12 H2         -0.5077    5.8038   -8.7207 H         1 MOL         0.2017
     13 H3         -1.4023    6.8594   -7.8291 H         1 MOL         0.2017
     14 H4         -2.5786    5.0608   -6.7413 H         1 MOL         0.1123
     15 H5         -1.3912    2.7500   -7.1467 H         1 MOL         0.0525
     16 H6         -0.8212    3.4956   -8.6783 H         1 MOL         0.0525
     17 H7         -4.2244    3.9951   -6.9531 H         1 MOL         0.2386
     18 H8         -2.6041    2.3640  -10.4977 H         1 MOL         0.0324
     19 H9         -6.1927    3.3448   -8.4663 H         1 MOL         0.1149
     20 N           0.0560    6.1340   -5.9720 N.am      1 MOL        -0.2606
     21 CA          1.1510    6.2640   -4.9690 C.3       1 MOL         0.1336
     22 C           0.5850    6.8420   -3.6710 C.2       1 MOL         0.2042
     23 O           0.5660    8.0390   -3.4670 O.2       1 MOL        -0.3944
     24 CB          2.2370    7.1920   -5.5170 C.3       1 MOL        -0.0037
     25 CG1         2.7640    6.6310   -6.8400 C.3       1 MOL        -0.0491
     26 CG2         3.3880    7.2830   -4.5120 C.3       1 MOL        -0.0582
     27 CD1         3.0670    7.7820   -7.8000 C.3       1 MOL        -0.0648
     28 H10        -0.2607    6.9386   -6.4743 H         1 MOL         0.1885
     29 H11         1.5844    5.2729   -4.7692 H         1 MOL         0.0803
     30 H12         1.8145    8.1938   -5.6839 H         1 MOL         0.0345
     31 H13         2.0050    5.9719   -7.2866 H         1 MOL         0.0267
     32 H14         3.6840    6.0575   -6.6540 H         1 MOL         0.0267
     33 H15         3.0124    7.6859   -3.5599 H         1 MOL         0.0235
     34 H16         4.1694    7.9478   -4.9086 H         1 MOL         0.0235
     35 H17         3.8093    6.2807   -4.3452 H         1 MOL         0.0235
     36 H18         3.4456    7.3770   -8.7501 H         1 MOL         0.0230
     37 H19         3.8263    8.4413   -7.3540 H         1 MOL         0.0230
     38 H20         2.1472    8.3557   -7.9866 H         1 MOL         0.0230
     39 N           0.1240    5.9970   -2.7900 N.am      1 MOL        -0.2635
     40 CA         -0.4410    6.4900   -1.5020 C.3       1 MOL         0.1335
     41 C           0.6030    7.3420   -0.7790 C.2       1 MOL         0.2042
     42 O           1.6780    6.8800   -0.4460 O.2       1 MOL        -0.3944
     43 CB         -0.8210    5.2960   -0.6230 C.3       1 MOL        -0.0037
     44 CG1        -1.6630    4.3050   -1.4270 C.3       1 MOL        -0.0491
     45 CG2        -1.6280    5.7730    0.5830 C.3       1 MOL        -0.0582
     46 CD1        -2.5930    5.0650   -2.3750 C.3       1 MOL        -0.0648
     47 H21         0.1499    5.0155   -2.9797 H         1 MOL         0.1883
     48 H22        -1.3356    7.0978   -1.7025 H         1 MOL         0.0803
     49 H23         0.0954    4.7974   -0.2744 H         1 MOL         0.0345
     50 H24        -2.2642    3.6934   -0.7381 H         1 MOL         0.0267
     51 H25        -0.9989    3.6522   -2.0125 H         1 MOL         0.0267
     52 H26        -1.0280    6.4868    1.1665 H         1 MOL         0.0235
     53 H27        -1.8883    4.9107    1.2144 H         1 MOL         0.0235
     54 H28        -2.5488    6.2651    0.2367 H         1 MOL         0.0235
     55 H29        -3.1960    4.3473   -2.9506 H         1 MOL         0.0230
     56 H30        -1.9931    5.6764   -3.0652 H         1 MOL         0.0230
     57 H31        -3.2585    5.7176   -1.7908 H         1 MOL         0.0230
     58 N           0.2920    8.5850   -0.5320 N.am      1 MOL        -0.2636
     59 CA          1.2590    9.4730    0.1710 C.3       1 MOL         0.1325
     60 C           0.5050   10.3240    1.1930 C.2       1 MOL         0.2041
     61 O          -0.6480   10.6590    1.0050 O.2       1 MOL        -0.3944
     62 CB          1.9530   10.3760   -0.8470 C.3       1 MOL        -0.0008
     63 CG          2.8200    9.5190   -1.7700 C.3       1 MOL         0.0044
     64 CD          3.2630   10.3510   -2.9750 C.2       1 MOL         0.0350
     65 OE1         3.9350   11.3480   -2.7670 O.co2     1 MOL        -0.5690
     66 OE2         2.9240    9.9760   -4.0850 O.co2     1 MOL        -0.5690
     67 H32        -0.5980    8.9422   -0.8155 H         1 MOL         0.1883
     68 H33         2.0119    8.8605    0.6886 H         1 MOL         0.0801
     69 H34         2.5858   11.1057   -0.3206 H         1 MOL         0.0330
     70 H35         1.1967   10.9086   -1.4423 H         1 MOL         0.0330
     71 H36         2.2391    8.6519   -2.1173 H         1 MOL         0.0433
     72 H37         3.7065    9.1701   -1.2201 H         1 MOL         0.0433
     73 N           1.1410   10.6700    2.2770 N.am      1 MOL        -0.2616
     74 CA          0.4530   11.4920    3.3110 C.3       1 MOL         0.1478
     75 C           0.8950   12.9570    3.1960 C.2       1 MOL         0.2088
     76 O           1.9510   13.2440    2.6670 O.2       1 MOL        -0.3940
     77 CB          0.8170   10.9560    4.6960 C.3       1 MOL         0.0773
     78 CG          0.0950    9.6280    4.9340 C.2       1 MOL         0.1780
     79 OD1        -1.1170    9.5640    4.8860 O.2       1 MOL        -0.3970
     80 ND2         0.7940    8.5560    5.1930 N.am      1 MOL        -0.3007
     81 H38         2.0894   10.3840    2.4141 H         1 MOL         0.1885
     82 H39        -0.6354   11.4273    3.1658 H         1 MOL         0.0826
     83 H40         0.5105   11.6827    5.4628 H         1 MOL         0.0551
     84 H41         1.9040   10.7980    4.7542 H         1 MOL         0.0551
     85 H42         0.3315    7.6834    5.3500 H         1 MOL         0.1814
     86 H43         1.7918    8.6076    5.2343 H         1 MOL         0.1814
     87 N           0.0670   13.8400    3.7000 N.am      1 MOL        -0.2497
     88 CA          0.3270   15.2860    3.6790 C.3       1 MOL         0.1338
     89 C           1.3750   15.6750    4.7340 C.2       1 MOL         0.2041
     90 O           1.8320   16.8010    4.7700 O.2       1 MOL        -0.3944
     91 CB         -1.0070   15.9460    4.0050 C.3       1 MOL        -0.0104
     92 CG         -1.7410   14.8590    4.8270 C.3       1 MOL        -0.0281
     93 CD         -1.2190   13.4840    4.3410 C.3       1 MOL         0.0369
     94 H44         0.6775   15.5960    2.6835 H         1 MOL         0.0802
     95 H45        -1.5622   16.1900    3.0873 H         1 MOL         0.0313
     96 H46        -0.8612   16.8600    4.5993 H         1 MOL         0.0313
     97 H47        -2.8261   14.9299    4.6609 H         1 MOL         0.0287
     98 H48        -1.5248   14.9867    5.8980 H         1 MOL         0.0287
     99 H49        -1.0657   12.7957    5.1852 H         1 MOL         0.0524
    100 H50        -1.9115   13.0286    3.6177 H         1 MOL         0.0524
    101 N           1.7620   14.7690    5.5950 N.am      1 MOL        -0.2636
    102 CA          2.7740   15.1170    6.6300 C.3       1 MOL         0.1330
    103 C           4.1700   14.7800    6.1080 C.2       1 MOL         0.2042
    104 O           5.0900   15.5660    6.2120 O.2       1 MOL        -0.3944
    105 CB          2.4970   14.3140    7.9030 C.3       1 MOL         0.0045
    106 CG          2.0120   15.2550    9.0080 C.3       1 MOL         0.0412
    107 CD          3.2140   15.9510    9.6490 C.2       1 MOL         0.1737
    108 OE1         4.0690   16.4710    8.9590 O.2       1 MOL        -0.3973
    109 NE2         3.3180   15.9830   10.9490 N.am      1 MOL        -0.3009
    110 H51         1.3793   13.8459    5.5580 H         1 MOL         0.1883
    111 H52         2.7155   16.1923    6.8543 H         1 MOL         0.0801
    112 H53         3.4207   13.8130    8.2281 H         1 MOL         0.0337
    113 H54         1.7230   13.5595    7.6988 H         1 MOL         0.0337
    114 H55         1.4731   14.6760    9.7724 H         1 MOL         0.0504
    115 H56         1.3381   16.0100    8.5771 H         1 MOL         0.0504
    116 H57         4.1002   16.4357   11.3770 H         1 MOL         0.1814
    117 H58         2.6155   15.5548   11.5175 H         1 MOL         0.1814
    118 N           4.3320   13.6150    5.5460 N.am      1 MOL        -0.2621
    119 CA          5.6660   13.2240    5.0160 C.3       1 MOL         0.1391
    120 C           5.8410   13.7970    3.6080 C.2       1 MOL         0.2059
    121 O           6.7900   14.5020    3.3300 O.2       1 MOL        -0.3942
    122 CB          5.7620   11.6970    4.9730 C.3       1 MOL         0.0167
    123 CG          7.1220   11.2580    5.4630 C.ar      1 MOL        -0.0484
    124 CD1         7.2300   10.4780    6.6210 C.ar      1 MOL        -0.0674
    125 CD2         8.2730   11.6240    4.7560 C.ar      1 MOL        -0.0674
    126 CE1         8.4900   10.0660    7.0720 C.ar      1 MOL        -0.0340
    127 CE2         9.5320   11.2120    5.2070 C.ar      1 MOL        -0.0340
    128 CZ          9.6400   10.4320    6.3640 C.ar      1 MOL         0.1225
    129 OH         10.9000   10.0210    6.8150 O.3       1 MOL        -0.1984
    130 P          11.8240   11.0880    7.4790 P.3       1 MOL         0.2773
    131 O1P        12.3790   11.9150    6.2920 O.co2     1 MOL        -0.6136
    132 O2P        12.9820   10.2680    8.1040 O.co2     1 MOL        -0.6136
    133 O3P        10.8690   11.8640    8.5030 O.3       1 MOL        -0.2669
    134 H59         3.5597   12.9842    5.4711 H         1 MOL         0.1885
    135 H60         6.4537   13.6218    5.6727 H         1 MOL         0.0821
    136 H61         5.6166   11.3505    3.9392 H         1 MOL         0.0454
    137 H62         4.9836   11.2634    5.6180 H         1 MOL         0.0454
    138 H63         6.3385   10.1933    7.1680 H         1 MOL         0.0532
    139 H64         8.1892   12.2267    3.8589 H         1 MOL         0.0532
    140 H65         8.5744    9.4637    7.9693 H         1 MOL         0.0537
    141 H66        10.4236   11.4970    4.6602 H         1 MOL         0.0537
    142 H67        11.3664   12.5380    8.9511 H         1 MOL         0.2631
    143 N           4.9340   13.5050    2.7170 N.am      1 MOL        -0.2618
    144 CA          5.0540   14.0400    1.3310 C.3       1 MOL         0.1404
    145 C           4.1190   15.2390    1.1680 C.2       1 MOL         0.2060
    146 O           2.9120   15.1110    1.2340 O.2       1 MOL        -0.3942
    147 CB          4.6700   12.9520    0.3260 C.3       1 MOL         0.0214
    148 CG          5.8730   12.0890    0.0340 C.ar      1 MOL        -0.0386
    149 CD1         6.4210   11.2910    1.0440 C.ar      1 MOL        -0.0601
    150 CD2         6.4400   12.0850   -1.2460 C.ar      1 MOL        -0.0601
    151 CE1         7.5350   10.4880    0.7760 C.ar      1 MOL        -0.0686
    152 CE2         7.5540   11.2810   -1.5150 C.ar      1 MOL        -0.0686
    153 CZ          8.1010   10.4830   -0.5030 C.ar      1 MOL        -0.0687
    154 H68         4.1591   12.9229    2.9636 H         1 MOL         0.1885
    155 H69         6.0916   14.3566    1.1488 H         1 MOL         0.0823
    156 H70         4.3202   13.4205   -0.6057 H         1 MOL         0.0474
    157 H71         3.8666   12.3303    0.7479 H         1 MOL         0.0474
    158 H72         5.9821   11.2948    2.0352 H         1 MOL         0.0557
    159 H73         6.0166   12.7042   -2.0285 H         1 MOL         0.0557
    160 H74         7.9592    9.8701    1.5592 H         1 MOL         0.0599
    161 H75         7.9928   11.2763   -2.5062 H         1 MOL         0.0599
    162 H76         8.9639    9.8607   -0.7109 H         1 MOL         0.0559
    163 N           4.6650   16.4050    0.9560 N.am      1 MOL        -0.2614
    164 CA          3.8070   17.6120    0.7890 C.3       1 MOL         0.1539
    165 C           3.7580   18.0030   -0.6890 C.2       1 MOL         0.2063
    166 O           4.7760   18.1960   -1.3230 O.2       1 MOL        -0.3943
    167 CB          4.3890   18.7680    1.6030 C.3       1 MOL         0.0843
    168 OG          3.7040   19.9680    1.2670 O.3       1 MOL        -0.3903
    169 H77         5.6602   16.4888    0.9055 H         1 MOL         0.1884
    170 H78         2.7895   17.3902    1.1433 H         1 MOL         0.0823
    171 H79         5.4589   18.8783    1.3725 H         1 MOL         0.0606
    172 H80         4.2645   18.5616    2.6762 H         1 MOL         0.0606
    173 H81         4.0628   20.6891    1.7708 H         1 MOL         0.2097
    174 N           2.5830   18.1220   -1.2430 N.am      1 MOL        -0.2621
    175 CA          2.4720   18.5010   -2.6800 C.3       1 MOL         0.1423
    176 C           1.3920   19.5720   -2.8450 C.2       1 MOL         0.2050
    177 O           0.2770   19.2880   -3.2340 O.2       1 MOL        -0.3943
    178 CB          2.0990   17.2670   -3.5040 C.3       1 MOL         0.0406
    179 CG          3.3320   16.7670   -4.2590 C.2       1 MOL         0.0393
    180 OD1         4.4220   16.9040   -3.7290 O.co2     1 MOL        -0.5688
    181 OD2         3.1650   16.2550   -5.3540 O.co2     1 MOL        -0.5688
    182 H82         1.7569   17.9589   -0.7035 H         1 MOL         0.1884
    183 H83         3.4366   18.8972   -3.0299 H         1 MOL         0.0819
    184 H84         1.3104   17.5313   -4.2239 H         1 MOL         0.0478
    185 H85         1.7333   16.4752   -2.8337 H         1 MOL         0.0478
    186 N           1.7130   20.8030   -2.5530 N.am      1 MOL        -0.2697
    187 CA          0.7040   21.8900   -2.6940 C.3       1 MOL         0.0916
    188 C           1.3830   23.2470   -2.4950 C.2       1 MOL         0.0598
    189 O           2.5620   23.3460   -2.7890 O.co2     1 MOL        -0.5666
    190 CB         -0.3910   21.7090   -1.6410 C.3       1 MOL        -0.0300
    191 OXT         0.7110   24.1640   -2.0510 O.co2     1 MOL        -0.5666
    192 H86         2.6366   21.0166   -2.2345 H         1 MOL         0.1875
    193 H87         0.2574   21.8474   -3.6984 H         1 MOL         0.0723
    194 H88        -1.1360   22.5116   -1.7451 H         1 MOL         0.0270
    195 H89         0.0555   21.7513   -0.6366 H         1 MOL         0.0270
    196 H90        -0.8799   20.7341   -1.7842 H         1 MOL         0.0270
@<TRIPOS>BOND
     1    1    2 1  
     2    1   11 1  
     3    1   12 1  
     4    1   13 1  
     5    2    3 1  
     6    2    5 1  
     7    2   14 1  
     8    3    4 2  
     9    3   20 am 
    10    5    6 1  
    11    5   15 1  
    12    5   16 1  
    13    6    7 1  
    14    6    8 2  
    15    7    9 1  
    16    7   17 1  
    17    8   10 1  
    18    8   18 1  
    19    9   10 2  
    20    9   19 1  
    21   20   21 1  
    22   20   28 1  
    23   21   22 1  
    24   21   24 1  
    25   21   29 1  
    26   22   23 2  
    27   22   39 am 
    28   24   25 1  
    29   24   26 1  
    30   24   30 1  
    31   25   27 1  
    32   25   31 1  
    33   25   32 1  
    34   26   33 1  
    35   26   34 1  
    36   26   35 1  
    37   27   36 1  
    38   27   37 1  
    39   27   38 1  
    40   39   40 1  
    41   39   47 1  
    42   40   41 1  
    43   40   43 1  
    44   40   48 1  
    45   41   42 2  
    46   41   58 am 
    47   43   44 1  
    48   43   45 1  
    49   43   49 1  
    50   44   46 1  
    51   44   50 1  
    52   44   51 1  
    53   45   52 1  
    54   45   53 1  
    55   45   54 1  
    56   46   55 1  
    57   46   56 1  
    58   46   57 1  
    59   58   59 1  
    60   58   67 1  
    61   59   60 1  
    62   59   62 1  
    63   59   68 1  
    64   60   61 2  
    65   60   73 am 
    66   62   63 1  
    67   62   69 1  
    68   62   70 1  
    69   63   64 1  
    70   63   71 1  
    71   63   72 1  
    72   64   65 ar 
    73   64   66 ar 
    74   73   74 1  
    75   73   81 1  
    76   74   75 1  
    77   74   77 1  
    78   74   82 1  
    79   75   76 2  
    80   75   87 am 
    81   77   78 1  
    82   77   83 1  
    83   77   84 1  
    84   78   79 2  
    85   78   80 am 
    86   80   85 1  
    87   80   86 1  
    88   87   88 1  
    89   87   93 1  
    90   88   89 1  
    91   88   91 1  
    92   88   94 1  
    93   89   90 2  
    94   89  101 am 
    95   91   92 1  
    96   91   95 1  
    97   91   96 1  
    98   92   93 1  
    99   92   97 1  
   100   92   98 1  
   101   93   99 1  
   102   93  100 1  
   103  101  102 1  
   104  101  110 1  
   105  102  103 1  
   106  102  105 1  
   107  102  111 1  
   108  103  104 2  
   109  103  118 am 
   110  105  106 1  
   111  105  112 1  
   112  105  113 1  
   113  106  107 1  
   114  106  114 1  
   115  106  115 1  
   116  107  108 2  
   117  107  109 am 
   118  109  116 1  
   119  109  117 1  
   120  118  119 1  
   121  118  134 1  
   122  119  120 1  
   123  119  122 1  
   124  119  135 1  
   125  120  121 2  
   126  120  143 am 
   127  122  123 1  
   128  122  136 1  
   129  122  137 1  
   130  123  124 ar 
   131  123  125 ar 
   132  124  126 ar 
   133  124  138 1  
   134  125  127 ar 
   135  125  139 1  
   136  126  128 ar 
   137  126  140 1  
   138  127  128 ar 
   139  127  141 1  
   140  128  129 1  
   141  129  130 1  
   142  130  131 ar 
   143  130  132 ar 
   144  130  133 1  
   145  133  142 1  
   146  143  144 1  
   147  143  154 1  
   148  144  145 1  
   149  144  147 1  
   150  144  155 1  
   151  145  146 2  
   152  145  163 am 
   153  147  148 1  
   154  147  156 1  
   155  147  157 1  
   156  148  149 ar 
   157  148  150 ar 
   158  149  151 ar 
   159  149  158 1  
   160  150  152 ar 
   161  150  159 1  
   162  151  153 ar 
   163  151  160 1  
   164  152  153 ar 
   165  152  161 1  
   166  153  162 1  
   167  163  164 1  
   168  163  169 1  
   169  164  165 1  
   170  164  167 1  
   171  164  170 1  
   172  165  166 2  
   173  165  174 am 
   174  167  168 1  
   175  167  171 1  
   176  167  172 1  
   177  168  173 1  
   178  174  175 1  
   179  174  182 1  
   180  175  176 1  
   181  175  178 1  
   182  175  183 1  
   183  176  177 2  
   184  176  186 am 
   185  178  179 1  
   186  178  184 1  
   187  178  185 1  
   188  179  180 ar 
   189  179  181 ar 
   190  186  187 1  
   191  186  192 1  
   192  187  188 1  
   193  187  190 1  
   194  187  193 1  
   195  188  189 ar 
   196  188  191 ar 
   197  190  194 1  
   198  190  195 1  
   199  190  196 1  
@<TRIPOS>SUBSTRUCTURE
     1 MOL         1

