### 
### Created by X-TOOL on Fri Sep 26 17:34:55 2014
### 

@<TRIPOS>MOLECULE
4e9c_ligand
  107   109     1     0     0
SMALL
GAST_HUCK


@<TRIPOS>ATOM
      1 N          15.1810  -13.0560   17.7780 N.4       1 PRO         0.2461
      2 CA         14.3030  -11.9500   17.4040 C.3       1 PRO         0.0671
      3 C          13.0410  -12.4390   16.6750 C.2       1 PRO         0.2293
      4 O          12.9530  -13.6190   16.3290 O.2       1 PRO        -0.3905
      5 CB         15.1900  -11.0970   16.4790 C.3       1 PRO         0.0127
      6 CG         16.5870  -11.4460   16.8600 C.3       1 PRO        -0.0053
      7 CD         16.5370  -12.9010   17.2240 C.3       1 PRO        -0.0313
      8 N          12.0540  -11.5430   16.4620 N.am      1 PRO        -0.2471
      9 CA         10.7830  -11.9040   15.8230 C.3       1 PRO         0.1339
     10 C          10.9160  -12.2720   14.3470 C.2       1 PRO         0.2041
     11 O          11.8390  -11.8120   13.6730 O.2       1 PRO        -0.3944
     12 CB          9.9450  -10.6250   15.9460 C.3       1 PRO        -0.0104
     13 CG         10.6400   -9.7780   16.9460 C.3       1 PRO        -0.0281
     14 CD         12.0780  -10.1300   16.8740 C.3       1 PRO         0.0371
     15 N           9.9740  -13.0770   13.8620 N.am      1 PRO        -0.2637
     16 CA          9.9620  -13.5440   12.4730 C.3       1 PRO         0.1312
     17 C           9.0310  -12.7300   11.5660 C.2       1 PRO         0.2040
     18 O           8.8990  -13.0280   10.3820 O.2       1 PRO        -0.3944
     19 CB          9.5850  -15.0280   12.4240 C.3       1 PRO        -0.0101
     20 CG         10.6970  -16.0860   12.3490 C.3       1 PRO        -0.0425
     21 CD1        12.0090  -15.6640   13.0030 C.3       1 PRO        -0.0625
     22 CD2        10.1990  -17.4130   12.9070 C.3       1 PRO        -0.0625
     23 N           8.3780  -11.7140   12.1240 N.am      1 PRO        -0.2625
     24 CA          7.4810  -10.8630   11.3390 C.3       1 PRO         0.1369
     25 C           7.2980   -9.4820   11.9500 C.2       1 PRO         0.2054
     26 O           7.5370   -9.2830   13.1430 O.2       1 PRO        -0.3942
     27 CB          6.1180  -11.5370   11.1020 C.3       1 PRO         0.0145
     28 CG          5.3910  -11.9100   12.3560 C.2       1 PRO        -0.0027
     29 ND1         4.7520  -10.9850   13.1530 N.2       1 PRO        -0.3252
     30 CD2         5.1850  -13.1150   12.9420 C.2       1 PRO         0.0291
     31 CE1         4.1950  -11.5990   14.1820 C.2       1 PRO         0.0907
     32 NE2         4.4420  -12.8930   14.0770 N.pl3     1 PRO        -0.2752
     33 N           6.8690   -8.5330   11.1200 N.am      1 PRO        -0.2615
     34 CA          6.5390   -7.1860   11.5830 C.3       1 PRO         0.1539
     35 C           5.3020   -7.2200   12.4790 C.2       1 PRO         0.2063
     36 O           4.7280   -8.2870   12.7100 O.2       1 PRO        -0.3943
     37 CB          6.3350   -6.2340   10.3940 C.3       1 PRO         0.0843
     38 OG          5.3170   -6.6810    9.5150 O.3       1 PRO        -0.3903
     39 N           4.9080   -6.0580   12.9930 N.am      1 PRO        -0.2610
     40 CA          3.8150   -5.9770   13.9700 C.3       1 PRO         0.1612
     41 CB          3.6160   -4.5260   14.4120 C.3       1 PRO         0.1262
     42 CG2         2.5190   -4.3920   15.4700 C.3       1 PRO        -0.0298
     43 OG1         4.8470   -4.0610   14.9590 O.3       1 PRO        -0.2685
     44 P           5.7650   -2.9360   14.2370 P.3       1 PRO         0.2014
     45 O1P         4.8340   -1.7800   13.9900 O.co2     1 PRO        -0.5537
     46 O2P         6.2790   -3.5640   12.9650 O.co2     1 PRO        -0.5537
     47 O3P         6.8410   -2.6510   15.2580 O.co2     1 PRO        -0.5537
     48 C           2.5320   -6.5670   13.4590 C.2       1 PRO         0.2068
     49 O           2.0070   -6.1580   12.4140 O.2       1 PRO        -0.3943
     50 N           2.0300   -7.5530   14.2030 N.am      1 PRO        -0.2639
     51 CA          0.7420   -8.1690   13.9110 C.3       1 PRO         0.1279
     52 C          -0.3520   -7.5990   14.8090 C.2       1 PRO         0.1989
     53 O          -0.0730   -6.8540   15.7530 O.2       1 PRO        -0.3947
     54 CB          0.8270   -9.6820   14.0760 C.3       1 PRO        -0.0244
     55 N          -1.5550   -7.8250   14.4940 N.am      1 PRO        -0.2990
     56 H          14.7824  -13.9178   17.4055 H         1 PRO         0.2035
     57 H          15.2537  -13.0737   18.7953 H         1 PRO         0.2035
     58 H          13.9275  -11.4007   18.2673 H         1 PRO         0.1099
     59 H          14.9920  -10.0317   16.5975 H         1 PRO         0.0347
     60 H          14.9937  -11.3030   15.4268 H         1 PRO         0.0347
     61 H          16.9453  -10.8341   17.6878 H         1 PRO         0.0320
     62 H          17.2874  -11.2565   16.0466 H         1 PRO         0.0320
     63 H          16.7238  -13.5565   16.3734 H         1 PRO         0.0814
     64 H          17.3173  -13.1877   17.9291 H         1 PRO         0.0814
     65 H          10.3548  -12.7868   16.2978 H         1 PRO         0.0802
     66 H           8.9249  -10.8489   16.2579 H         1 PRO         0.0313
     67 H           9.8590  -10.1146   14.9867 H         1 PRO         0.0313
     68 H          10.2459   -9.9548   17.9467 H         1 PRO         0.0287
     69 H          10.4873   -8.7200   16.7330 H         1 PRO         0.0287
     70 H          12.6330   -9.4977   16.1810 H         1 PRO         0.0524
     71 H          12.5983   -9.9748   17.8192 H         1 PRO         0.0524
     72 H           9.2266  -13.3828   14.4851 H         1 PRO         0.1883
     73 H          10.9708  -13.4016   12.0856 H         1 PRO         0.0800
     74 H           9.0292  -15.1428   11.4934 H         1 PRO         0.0315
     75 H           9.0838  -15.2187   13.3730 H         1 PRO         0.0315
     76 H          10.9356  -16.2037   11.2920 H         1 PRO         0.0298
     77 H          12.3867  -14.7675   12.5113 H         1 PRO         0.0232
     78 H          11.8366  -15.4555   14.0589 H         1 PRO         0.0232
     79 H          12.7378  -16.4685   12.9045 H         1 PRO         0.0232
     80 H           9.9020  -17.2797   13.9473 H         1 PRO         0.0232
     81 H           9.3428  -17.7524   12.3240 H         1 PRO         0.0232
     82 H          10.9970  -18.1531   12.8476 H         1 PRO         0.0232
     83 H           8.5046  -11.5240   13.1181 H         1 PRO         0.1885
     84 H           7.9663  -10.7259   10.3727 H         1 PRO         0.0817
     85 H           6.3068  -12.4598   10.5534 H         1 PRO         0.0420
     86 H           5.4932  -10.8200   10.5695 H         1 PRO         0.0420
     87 H           5.5418  -14.0795   12.5807 H         1 PRO         0.0729
     88 H           3.6287  -11.1201   14.9808 H         1 PRO         0.1199
     89 H           4.1316  -13.6107   14.7320 H         1 PRO         0.2361
     90 H           6.7674   -8.7530   10.1292 H         1 PRO         0.1884
     91 H           7.3753   -6.8079   12.1710 H         1 PRO         0.0823
     92 H           7.2689   -6.1878    9.8339 H         1 PRO         0.0606
     93 H           6.0393   -5.2612   10.7868 H         1 PRO         0.0606
     94 H           5.2251   -6.0579    8.7905 H         1 PRO         0.2097
     95 H           5.3775   -5.2009   12.7007 H         1 PRO         0.1884
     96 H           4.1036   -6.5787   14.8318 H         1 PRO         0.0830
     97 H           3.3113   -3.9377   13.5465 H         1 PRO         0.0695
     98 H           1.5760   -4.7556   15.0618 H         1 PRO         0.0260
     99 H           2.7879   -4.9809   16.3470 H         1 PRO         0.0260
    100 H           2.4143   -3.3444   15.7523 H         1 PRO         0.0260
    101 H           2.5658   -7.8876   15.0039 H         1 PRO         0.1883
    102 H           0.4852   -7.9426   12.8762 H         1 PRO         0.0797
    103 H           1.5750  -10.0796   13.3900 H         1 PRO         0.0277
    104 H           1.1102   -9.9190   15.1015 H         1 PRO         0.0277
    105 H          -0.1436  -10.1255   13.8540 H         1 PRO         0.0277
    106 H          -2.3110   -7.3895   15.0224 H         1 PRO         0.1815
    107 H          -1.7698   -8.4429   13.7114 H         1 PRO         0.1815
@<TRIPOS>BOND
     1    1    2 1  
     2    1    7 1  
     3    2    3 1  
     4    2    5 1  
     5    3    4 2  
     6    3    8 am 
     7    5    6 1  
     8    6    7 1  
     9    8    9 1  
    10    8   14 1  
    11    9   10 1  
    12    9   12 1  
    13   10   11 2  
    14   10   15 am 
    15   12   13 1  
    16   13   14 1  
    17   15   16 1  
    18   16   17 1  
    19   16   19 1  
    20   17   18 2  
    21   17   23 am 
    22   19   20 1  
    23   20   21 1  
    24   20   22 1  
    25   23   24 1  
    26   24   25 1  
    27   24   27 1  
    28   25   26 2  
    29   25   33 am 
    30   27   28 1  
    31   28   29 1  
    32   28   30 2  
    33   29   31 2  
    34   30   32 1  
    35   31   32 1  
    36   33   34 1  
    37   34   35 1  
    38   34   37 1  
    39   35   36 2  
    40   35   39 am 
    41   37   38 1  
    42   39   40 1  
    43   40   41 1  
    44   40   48 1  
    45   41   42 1  
    46   41   43 1  
    47   43   44 1  
    48   44   45 ar 
    49   44   46 ar 
    50   44   47 ar 
    51   48   49 2  
    52   48   50 am 
    53   50   51 1  
    54   51   52 1  
    55   51   54 1  
    56   52   53 2  
    57   52   55 am 
    58    1   56 1  
    59    1   57 1  
    60    2   58 1  
    61    5   59 1  
    62    5   60 1  
    63    6   61 1  
    64    6   62 1  
    65    7   63 1  
    66    7   64 1  
    67    9   65 1  
    68   12   66 1  
    69   12   67 1  
    70   13   68 1  
    71   13   69 1  
    72   14   70 1  
    73   14   71 1  
    74   15   72 1  
    75   16   73 1  
    76   19   74 1  
    77   19   75 1  
    78   20   76 1  
    79   21   77 1  
    80   21   78 1  
    81   21   79 1  
    82   22   80 1  
    83   22   81 1  
    84   22   82 1  
    85   23   83 1  
    86   24   84 1  
    87   27   85 1  
    88   27   86 1  
    89   30   87 1  
    90   31   88 1  
    91   32   89 1  
    92   33   90 1  
    93   34   91 1  
    94   37   92 1  
    95   37   93 1  
    96   38   94 1  
    97   39   95 1  
    98   40   96 1  
    99   41   97 1  
   100   42   98 1  
   101   42   99 1  
   102   42  100 1  
   103   50  101 1  
   104   51  102 1  
   105   54  103 1  
   106   54  104 1  
   107   54  105 1  
   108   55  106 1  
   109   55  107 1  
@<TRIPOS>SUBSTRUCTURE
     1 PRO         1

