### 
### Created by X-TOOL on Fri Sep 26 17:35:02 2014
### 

@<TRIPOS>MOLECULE
4lkl_ligand
  128   132     1     0     0
SMALL
GAST_HUCK


@<TRIPOS>ATOM
      1 C           6.4910   17.2570   15.4600 C.2       1 ACE         0.1813
      2 O           6.6760   18.1370   14.6160 O.2       1 ACE        -0.3967
      3 CH3         5.1540   17.1140   16.1660 C.3       1 ACE         0.0432
      4 N           7.4530   16.3830   15.7880 N.am      1 ACE        -0.2517
      5 CA          8.7810   16.4220   15.1730 C.3       1 ACE         0.1337
      6 C           8.7810   15.7970   13.7800 C.2       1 ACE         0.2041
      7 O           7.9190   14.9840   13.4620 O.2       1 ACE        -0.3944
      8 CB          9.6300   15.6350   16.1640 C.3       1 ACE        -0.0104
      9 CG          8.6760   14.5630   16.5970 C.3       1 ACE        -0.0281
     10 CD          7.3880   15.3340   16.8250 C.3       1 ACE         0.0369
     11 N           9.7500   16.1840   12.9550 N.am      1 ACE        -0.2637
     12 CA          9.8600   15.6590   11.5990 C.3       1 ACE         0.1312
     13 C          10.8250   14.4830   11.5170 C.2       1 ACE         0.2040
     14 O          11.0090   13.8880   10.4570 O.2       1 ACE        -0.3944
     15 CB         10.3030   16.7680   10.6420 C.3       1 ACE        -0.0101
     16 CG          9.2710   17.8870   10.4770 C.3       1 ACE        -0.0425
     17 CD1         9.7740   18.9100    9.4680 C.3       1 ACE        -0.0625
     18 CD2         7.9520   17.2910   10.0150 C.3       1 ACE        -0.0625
     19 N          11.4510   14.1620   12.6430 N.am      1 ACE        -0.2625
     20 CA         12.3800   13.0420   12.7110 C.3       1 ACE         0.1369
     21 C          12.4680   12.6060   14.1610 C.2       1 ACE         0.2054
     22 O          12.0350   13.3310   15.0600 O.2       1 ACE        -0.3942
     23 CB         13.7660   13.4450   12.1830 C.3       1 ACE         0.0145
     24 CG         14.3670   14.6270   12.8790 C.2       1 ACE        -0.0027
     25 ND1        14.7520   14.5980   14.2030 N.2       1 ACE        -0.3252
     26 CD2        14.6530   15.8730   12.4310 C.2       1 ACE         0.0291
     27 CE1        15.2510   15.7750   14.5400 C.2       1 ACE         0.0907
     28 NE2        15.2030   16.5660   13.4830 N.pl3     1 ACE        -0.2752
     29 N          13.0130   11.4190   14.3920 N.am      1 ACE        -0.2615
     30 CA         13.1400   10.9100   15.7500 C.3       1 ACE         0.1539
     31 C          14.2250   11.6670   16.5190 C.2       1 ACE         0.2063
     32 O          14.8560   12.5830   15.9900 O.2       1 ACE        -0.3943
     33 CB         13.4450    9.4050   15.7250 C.3       1 ACE         0.0843
     34 OG         14.6210    9.1050   14.9790 O.3       1 ACE        -0.3903
     35 N          14.4500   11.2900   17.7840 N.am      1 ACE        -0.2610
     36 CA         15.0730   12.2070   18.7360 C.3       1 ACE         0.1612
     37 CB         14.9560   11.6920   20.1920 C.3       1 ACE         0.1262
     38 CG2        15.4920   12.6800   21.2010 C.3       1 ACE        -0.0298
     39 OG1        13.5360   11.5490   20.3770 O.3       1 ACE        -0.2685
     40 P          12.7950   10.1570   20.6300 P.3       1 ACE         0.2014
     41 O1P        13.5040    9.3080   21.6440 O.co2     1 ACE        -0.5537
     42 O2P        12.7690    9.5490   19.2330 O.co2     1 ACE        -0.5537
     43 O3P        11.4300   10.6230   21.0710 O.co2     1 ACE        -0.5537
     44 C          16.5600   12.3540   18.4130 C.2       1 ACE         0.2068
     45 O          17.2490   11.3890   18.1570 O.2       1 ACE        -0.3943
     46 N          17.0480   13.5920   18.4400 N.am      1 ACE        -0.2636
     47 CA         18.4630   13.9520   18.4930 C.3       1 ACE         0.1314
     48 C          18.9390   14.1740   19.9240 C.2       1 ACE         0.1992
     49 O          18.1640   14.5790   20.7940 O.2       1 ACE        -0.3947
     50 CB         18.7160   15.2240   17.6860 C.3       1 ACE        -0.0034
     51 CG         18.3090   15.1500   16.2350 C.3       1 ACE        -0.0024
     52 SD         18.7900   16.6700   15.3960 S.3       1 ACE        -0.1639
     53 CE         19.7520   16.0210   14.0310 C.3       1 ACE        -0.0181
     54 N          20.2200   13.9190   20.1800 N.am      1 ACE        -0.2990
     55 C1          4.9030   18.0580   17.5050 C.3       1 ACE        -0.0117
     56 C2          5.2010   19.4820   17.0520 C.3       1 ACE        -0.0424
     57 C3          4.8980   20.4540   18.1930 C.3       1 ACE        -0.0399
     58 C4          5.7640   20.1120   19.3980 C.3       1 ACE        -0.0473
     59 C5          5.4660   18.6880   19.8510 C.3       1 ACE        -0.0399
     60 C6          3.9950   18.5730   20.2370 C.3       1 ACE        -0.0473
     61 C7          3.1240   18.9180   19.0320 C.3       1 ACE        -0.0399
     62 C8          3.4290   17.9460   17.8890 C.3       1 ACE        -0.0424
     63 C9          5.7700   17.7170   18.7120 C.3       1 ACE        -0.0424
     64 C10         3.4260   20.3440   18.5790 C.3       1 ACE        -0.0473
     65 H1          5.0543   16.0638   16.4775 H         1 ACE         0.0508
     66 H2          4.3667   17.3566   15.4372 H         1 ACE         0.0508
     67 H3          9.1416   17.4583   15.0946 H         1 ACE         0.0802
     68 H4          9.9405   16.2621   17.0127 H         1 ACE         0.0313
     69 H5         10.5200   15.2077   15.6789 H         1 ACE         0.0313
     70 H6          9.0176   14.0788   17.5237 H         1 ACE         0.0287
     71 H7          8.5497   13.8035   15.8114 H         1 ACE         0.0287
     72 H8          6.5085   14.6888   16.6827 H         1 ACE         0.0524
     73 H9          7.3613   15.7733   17.8331 H         1 ACE         0.0524
     74 H10        10.4214   16.8532   13.2734 H         1 ACE         0.1883
     75 H11         8.8655   15.3067   11.2878 H         1 ACE         0.0800
     76 H12        10.4908   16.3205    9.6549 H         1 ACE         0.0315
     77 H13        11.2341   17.2085   11.0280 H         1 ACE         0.0315
     78 H14         9.1202   18.3852   11.4461 H         1 ACE         0.0298
     79 H15         9.0281   19.7105    9.3545 H         1 ACE         0.0232
     80 H16         9.9352   18.4188    8.4971 H         1 ACE         0.0232
     81 H17        10.7221   19.3400    9.8233 H         1 ACE         0.0232
     82 H18         7.6033   16.5550   10.7544 H         1 ACE         0.0232
     83 H19         8.0939   16.7955    9.0432 H         1 ACE         0.0232
     84 H20         7.2039   18.0909    9.9130 H         1 ACE         0.0232
     85 H21        11.2802   14.7034   13.4662 H         1 ACE         0.1885
     86 H22        11.9959   12.2112   12.1009 H         1 ACE         0.0817
     87 H23        13.6716   13.6854   11.1138 H         1 ACE         0.0420
     88 H24        14.4453   12.5889   12.3078 H         1 ACE         0.0420
     89 H25        14.4797   16.2542   11.4257 H         1 ACE         0.0729
     90 H26        15.6361   16.0463   15.5219 H         1 ACE         0.1199
     91 H27        15.5255   17.5437   13.4522 H         1 ACE         0.2361
     92 H28        13.3403   10.8675   13.6247 H         1 ACE         0.1884
     93 H29        12.1813   11.0616   16.2676 H         1 ACE         0.0823
     94 H30        12.5932    8.8787   15.2696 H         1 ACE         0.0606
     95 H31        13.5825    9.0545   16.7585 H         1 ACE         0.0606
     96 H32        14.7710    8.1670   14.9901 H         1 ACE         0.2097
     97 H33        14.1890   10.3713   18.0803 H         1 ACE         0.1884
     98 H34        14.5798   13.1872   18.6585 H         1 ACE         0.0830
     99 H35        15.4753   10.7292   20.3075 H         1 ACE         0.0695
    100 H36        15.3844   12.2646   22.2138 H         1 ACE         0.0260
    101 H37        14.9269   13.6210   21.1287 H         1 ACE         0.0260
    102 H38        16.5550   12.8739   20.9953 H         1 ACE         0.0260
    103 H39        16.3874   14.3425   18.4224 H         1 ACE         0.1883
    104 H40        19.0457   13.1291   18.0533 H         1 ACE         0.0800
    105 H41        19.7925   15.4460   17.7275 H         1 ACE         0.0320
    106 H42        18.1540   16.0442   18.1566 H         1 ACE         0.0320
    107 H43        17.2185   15.0230   16.1664 H         1 ACE         0.0378
    108 H44        18.8086   14.2942   15.7575 H         1 ACE         0.0378
    109 H45        20.1218   16.8536   13.4145 H         1 ACE         0.0340
    110 H46        19.1197   15.3628   13.4170 H         1 ACE         0.0340
    111 H47        20.6052   15.4482   14.4233 H         1 ACE         0.0340
    112 H48        20.5808   14.0491   21.1035 H         1 ACE         0.1815
    113 H49        20.8216   13.5974   19.4488 H         1 ACE         0.1815
    114 H50         4.5732   19.7294   16.1833 H         1 ACE         0.0275
    115 H51         6.2619   19.5636   16.7729 H         1 ACE         0.0275
    116 H52         5.1151   21.4815   17.8657 H         1 ACE         0.0301
    117 H53         5.5435   20.8112   20.2181 H         1 ACE         0.0271
    118 H54         6.8255   20.1940   19.1216 H         1 ACE         0.0271
    119 H55         6.0933   18.4413   20.7202 H         1 ACE         0.0301
    120 H56         3.7761   19.2702   21.0592 H         1 ACE         0.0271
    121 H57         3.7805   17.5442   20.5618 H         1 ACE         0.0271
    122 H58         2.0628   18.8375   19.3101 H         1 ACE         0.0301
    123 H59         3.2119   16.9179   18.2143 H         1 ACE         0.0275
    124 H60         2.8035   18.1952   17.0191 H         1 ACE         0.0275
    125 H61         6.8315   17.7982   18.4351 H         1 ACE         0.0275
    126 H62         5.5540   16.6893   19.0395 H         1 ACE         0.0275
    127 H63         2.7994   20.5930   17.7099 H         1 ACE         0.0271
    128 H64         3.2090   21.0432   19.4000 H         1 ACE         0.0271
@<TRIPOS>BOND
     1    1    2 2  
     2    1    3 1  
     3    1    4 am 
     4    3   55 1  
     5    4    5 1  
     6    4   10 1  
     7    5    6 1  
     8    5    8 1  
     9    6    7 2  
    10    6   11 am 
    11    8    9 1  
    12    9   10 1  
    13   11   12 1  
    14   12   13 1  
    15   12   15 1  
    16   13   14 2  
    17   13   19 am 
    18   15   16 1  
    19   16   17 1  
    20   16   18 1  
    21   19   20 1  
    22   20   21 1  
    23   20   23 1  
    24   21   22 2  
    25   21   29 am 
    26   23   24 1  
    27   24   25 1  
    28   24   26 2  
    29   25   27 2  
    30   26   28 1  
    31   27   28 1  
    32   29   30 1  
    33   30   31 1  
    34   30   33 1  
    35   31   32 2  
    36   31   35 am 
    37   33   34 1  
    38   35   36 1  
    39   36   37 1  
    40   36   44 1  
    41   37   38 1  
    42   37   39 1  
    43   39   40 1  
    44   40   41 ar 
    45   40   42 ar 
    46   40   43 ar 
    47   44   45 2  
    48   44   46 am 
    49   46   47 1  
    50   47   48 1  
    51   47   50 1  
    52   48   49 2  
    53   48   54 am 
    54   50   51 1  
    55   51   52 1  
    56   52   53 1  
    57   55   56 1  
    58   55   62 1  
    59   55   63 1  
    60   56   57 1  
    61   57   58 1  
    62   57   64 1  
    63   58   59 1  
    64   59   60 1  
    65   59   63 1  
    66   60   61 1  
    67   61   62 1  
    68   61   64 1  
    69    3   65 1  
    70    3   66 1  
    71    5   67 1  
    72    8   68 1  
    73    8   69 1  
    74    9   70 1  
    75    9   71 1  
    76   10   72 1  
    77   10   73 1  
    78   11   74 1  
    79   12   75 1  
    80   15   76 1  
    81   15   77 1  
    82   16   78 1  
    83   17   79 1  
    84   17   80 1  
    85   17   81 1  
    86   18   82 1  
    87   18   83 1  
    88   18   84 1  
    89   19   85 1  
    90   20   86 1  
    91   23   87 1  
    92   23   88 1  
    93   26   89 1  
    94   27   90 1  
    95   28   91 1  
    96   29   92 1  
    97   30   93 1  
    98   33   94 1  
    99   33   95 1  
   100   34   96 1  
   101   35   97 1  
   102   36   98 1  
   103   37   99 1  
   104   38  100 1  
   105   38  101 1  
   106   38  102 1  
   107   46  103 1  
   108   47  104 1  
   109   50  105 1  
   110   50  106 1  
   111   51  107 1  
   112   51  108 1  
   113   53  109 1  
   114   53  110 1  
   115   53  111 1  
   116   54  112 1  
   117   54  113 1  
   118   56  114 1  
   119   56  115 1  
   120   57  116 1  
   121   58  117 1  
   122   58  118 1  
   123   59  119 1  
   124   60  120 1  
   125   60  121 1  
   126   61  122 1  
   127   62  123 1  
   128   62  124 1  
   129   63  125 1  
   130   63  126 1  
   131   64  127 1  
   132   64  128 1  
@<TRIPOS>SUBSTRUCTURE
     1 ACE         1

