5clm_ligand

Created by X-TOOL on Sun Nov 13 14:26:13 2016
 42 44  0  0  0  0  0  0  0  0999 V2000
   69.0250   49.3620    9.2580  C 0  0  0  3  0  4
   69.4340   50.3400    8.1430  C 0  0  0  1  0  4
   68.3380   47.6900    7.6800  C 0  0  0  3  0  4
   68.0490   48.8760    6.7650  C 0  3  0  1  0  3
   69.1140   51.7750    8.5720  C 0  0  0  4  0  4
   71.9160   50.6770    8.6470  C 0  0  0  2  0  3
   72.7080   49.2580    6.3860  C 0  0  0  1  0  3
   74.0650   47.8480    4.6810  C 0  0  0  1  0  3
   73.9470   47.0820    3.4240  C 0  0  0  1  0  3
   72.7330   46.6820    1.3800  C 0  0  0  2  0  3
   73.5970   45.6560    1.0460  C 0  0  0  1  0  3
   73.3540   44.8170   -0.4340 Cl 0  0  0  1  0  1
   72.9040   47.3890    2.5610  N 0  0  0  1  0  2
   74.6430   45.3370    1.9040  C 0  0  0  2  0  3
   74.8160   46.0380    3.0940  C 0  0  0  2  0  3
   75.1370   47.9060    5.2460  O 0  0  0  1  0  1
   72.9510   48.4940    5.2170  N 0  0  0  2  0  3
   71.3650   49.4210    6.6860  C 0  0  0  2  0  3
   73.6690   49.7980    7.2350  C 0  0  0  2  0  3
   73.2670   50.5050    8.3600  C 0  0  0  2  0  3
   70.9330   50.1410    7.8060  C 0  0  0  1  0  3
   68.6070   50.0360    6.9520  N 0  0  0  2  0  3
   67.1800   48.7370    5.7210  N 0  0  0  3  0  3
   69.1640   48.0170    8.8050  O 0  0  0  1  0  2
   67.9768   49.5456    9.5367  H 0  0  0  1  0  1
   69.6705   49.5192   10.1347  H 0  0  0  1  0  1
   68.8462   46.9126    7.0906  H 0  0  0  1  0  1
   67.3805   47.2990    8.0545  H 0  0  0  1  0  1
   69.4078   52.4709    7.7724  H 0  0  0  1  0  1
   69.6698   52.0158    9.4902  H 0  0  0  1  0  1
   68.0345   51.8690    8.7615  H 0  0  0  1  0  1
   71.6217   51.2316    9.5307  H 0  0  0  1  0  1
   71.9160   46.9358    0.7143  H 0  0  0  1  0  1
   75.3279   44.5377    1.6449  H 0  0  0  1  0  1
   75.6252   45.7741    3.7653  H 0  0  0  1  0  1
   72.1366   48.3955    4.6451  H 0  0  0  1  0  1
   70.6242   48.9761    6.0315  H 0  0  0  1  0  1
   74.7234   49.6676    7.0196  H 0  0  0  1  0  1
   74.0137   50.9279    9.0224  H 0  0  0  1  0  1
   68.4685   50.7717    6.2446  H 0  0  0  1  0  1
   66.9849   49.5377    5.1032  H 0  0  0  1  0  1
   66.7196   47.8314    5.5512  H 0  0  0  1  0  1
  2  1  1  0  0  1
  1 24  1  0  0  1
  2  5  1  0  0  2
 21  2  1  0  0  2
  2 22  1  0  0  1
  4  3  1  0  0  1
 24  3  1  0  0  1
 22  4  4  0  0  1
  4 23  2  0  0  2
  6 20  4  0  0  1
 21  6  4  0  0  1
  7 17  1  0  0  2
 18  7  4  0  0  1
  7 19  4  0  0  1
  8  9  1  0  0  2
  8 16  2  0  0  2
 17  8  1  0  0  2
  9 13  4  0  0  1
  9 15  4  0  0  1
 10 11  4  0  0  1
 13 10  4  0  0  1
 11 12  1  0  0  2
 14 11  4  0  0  1
 15 14  4  0  0  1
 18 21  4  0  0  1
 19 20  4  0  0  1
  1 25  1  0  0  2
  1 26  1  0  0  2
  3 27  1  0  0  2
  3 28  1  0  0  2
  5 29  1  0  0  2
  5 30  1  0  0  2
  5 31  1  0  0  2
  6 32  1  0  0  2
 10 33  1  0  0  2
 14 34  1  0  0  2
 15 35  1  0  0  2
 17 36  1  0  0  2
 18 37  1  0  0  2
 19 38  1  0  0  2
 20 39  1  0  0  2
 22 40  1  0  0  2
 23 41  1  0  0  2
 23 42  1  0  0  2
M  END
> <MOLECULAR_FORMULA>
C17H18N4O2Cl

> <MOLECULAR_WEIGHT>
345.7

> <NUM_HB_ATOMS>
6  

> <NUM_ROTOR>
1  

> <XLOGP2>
1.43 

$$$$
