### 
### Created by X-TOOL on Fri Sep 26 17:34:34 2014
### 

@<TRIPOS>MOLECULE
2foy_ligand
   41    42     1     0     0
SMALL
GAST_HUCK


@<TRIPOS>ATOM
      1 S         -16.5550   -1.0480  -20.3290 S.o2      1 B30         0.0677
      2 O1        -17.3230   -2.0080  -21.0810 O.2       1 B30        -0.1499
      3 O2        -16.3250    0.2510  -20.9150 O.2       1 B30        -0.1499
      4 N1        -15.1600   -1.7030  -19.8890 N.am      1 B30        -0.2605
      5 C1        -19.0180   -0.3910  -16.4290 C.ar      1 B30         0.0499
      6 C2        -18.3790   -1.6310  -16.7190 C.ar      1 B30        -0.0401
      7 C3        -17.6310   -1.8080  -17.9040 C.ar      1 B30        -0.0295
      8 C4        -17.4960   -0.7670  -18.8320 C.ar      1 B30         0.1122
      9 C5        -18.1280    0.4660  -18.5390 C.ar      1 B30        -0.0295
     10 C6        -18.8790    0.6570  -17.3570 C.ar      1 B30        -0.0401
     11 C7        -19.8390   -0.2230  -15.1610 C.2       1 B30         0.2051
     12 O7        -20.7770    0.6140  -15.2110 O.2       1 B30        -0.3847
     13 N8        -19.5370   -0.9790  -14.1000 N.am      1 B30        -0.2810
     14 C9        -20.2760   -0.9660  -12.7750 C.3       1 B30         0.0704
     15 C10       -19.9160    0.2470  -11.8240 C.3       1 B30        -0.0086
     16 N11       -18.5810    0.4710  -11.2790 N.4       1 B30         0.2598
     17 C12       -17.7600    1.5830  -11.6930 C.3       1 B30         0.0226
     18 C13       -17.2960    1.5220  -13.1150 C.2       1 B30         0.0813
     19 OXA       -17.2780    2.5660  -13.7590 O.co2     1 B30        -0.5645
     20 OXB       -16.9540    0.4080  -13.5460 O.co2     1 B30        -0.5645
     21 C14       -17.9850   -0.2620  -10.1470 C.3       1 B30         0.0226
     22 C15       -18.3790   -1.7140  -10.1300 C.2       1 B30         0.0813
     23 OXC       -18.0640   -2.4040  -11.1050 O.co2     1 B30        -0.5645
     24 OXD       -19.0010   -2.1630   -9.1580 O.co2     1 B30        -0.5645
     25 CU        -17.1040   -1.0600  -12.2630 Cu        1 B30         0.0000
     26 H1        -15.1446   -2.6080  -19.4639 H         1 B30         0.1635
     27 H2        -14.3050   -1.2067  -20.0395 H         1 B30         0.1635
     28 H3        -18.4685   -2.4529  -16.0179 H         1 B30         0.0670
     29 H4        -17.1549   -2.7623  -18.0981 H         1 B30         0.0649
     30 H5        -18.0331    1.2864  -19.2411 H         1 B30         0.0649
     31 H6        -19.3495    1.6145  -17.1649 H         1 B30         0.0670
     32 H7        -18.7610   -1.6037  -14.1870 H         1 B30         0.1847
     33 H8        -20.0401   -1.8993  -12.2428 H         1 B30         0.0572
     34 H9        -21.3549   -0.9267  -12.9857 H         1 B30         0.0572
     35 H10       -20.5848    0.1575  -10.9553 H         1 B30         0.0835
     36 H11       -20.1676    1.1571  -12.3883 H         1 B30         0.0835
     37 H12       -18.1820   -0.1565  -11.9595 H         1 B30         0.2062
     38 H13       -16.8724    1.6141  -11.0440 H         1 B30         0.0989
     39 H14       -18.3427    2.5067  -11.5620 H         1 B30         0.0989
     40 H15       -18.3191    0.2052   -9.2089 H         1 B30         0.0989
     41 H16       -16.8895   -0.1945  -10.2204 H         1 B30         0.0989
@<TRIPOS>BOND
     1    1    2 2  
     2    1    3 2  
     3    1    4 am 
     4    8    1 1  
     5    6    5 ar 
     6    5   10 ar 
     7    5   11 1  
     8    7    6 ar 
     9    8    7 ar 
    10    8    9 ar 
    11    9   10 ar 
    12   11   12 2  
    13   11   13 am 
    14   13   14 1  
    15   14   15 1  
    16   15   16 1  
    17   16   17 1  
    18   16   21 1  
    19   17   18 1  
    20   18   19 ar 
    21   18   20 ar 
    22   21   22 1  
    23   22   23 ar 
    24   22   24 ar 
    25    4   26 1  
    26   20   25 1  
    27    4   27 1  
    28   23   25 1  
    29    6   28 1  
    30    7   29 1  
    31    9   30 1  
    32   10   31 1  
    33   13   32 1  
    34   14   33 1  
    35   14   34 1  
    36   15   35 1  
    37   15   36 1  
    38   16   37 1  
    39   17   38 1  
    40   17   39 1  
    41   21   40 1  
    42   21   41 1  
@<TRIPOS>SUBSTRUCTURE
     1 B30         1

