### 
### Created by X-TOOL on Fri Sep 26 17:34:38 2014
### 

@<TRIPOS>MOLECULE
2h5e_ligand
   41    43     1     0     0
SMALL
GAST_HUCK


@<TRIPOS>ATOM
      1 PB         -2.7820   26.7130   -1.1860 P.3       1 GDP         0.2069
      2 O1B        -3.3700   27.0580   -2.5000 O.co2     1 GDP        -0.5891
      3 O2B        -1.3040   27.1470   -1.2220 O.co2     1 GDP        -0.5891
      4 O3B        -3.5770   27.4540   -0.1000 O.co2     1 GDP        -0.5891
      5 O3A        -2.8600   25.1090   -0.9010 O.3       1 GDP        -0.1548
      6 PA         -4.0550   24.4740   -0.0380 P.3       1 GDP         0.3276
      7 O1A        -3.7760   24.7030    1.3680 O.co2     1 GDP        -0.5556
      8 O2A        -5.4060   25.0860   -0.4390 O.co2     1 GDP        -0.5556
      9 O5'        -4.0010   22.8880   -0.3750 O.3       1 GDP        -0.2436
     10 C5'        -4.0840   22.4540   -1.7170 C.3       1 GDP         0.1132
     11 C4'        -4.4940   20.9950   -1.7760 C.3       1 GDP         0.1190
     12 O4'        -3.4500   20.2000   -1.2400 O.3       1 GDP        -0.3347
     13 C3'        -5.7690   20.7260   -0.9770 C.3       1 GDP         0.1151
     14 O3'        -6.6490   19.8210   -1.6720 O.3       1 GDP        -0.3864
     15 C2'        -5.2060   20.1780    0.3280 C.3       1 GDP         0.1407
     16 O2'        -6.0890   19.2670    0.9340 O.3       1 GDP        -0.3835
     17 C1'        -3.9140   19.4990   -0.1070 C.3       1 GDP         0.2218
     18 N9         -2.8080   19.5120    0.8710 N.pl3     1 GDP        -0.0954
     19 C8         -2.3000   20.5980    1.5410 C.2       1 GDP         0.1855
     20 N7         -1.2640   20.1830    2.3140 N.2       1 GDP        -0.1929
     21 C5         -1.0970   18.8560    2.1260 C.2       1 GDP         0.2558
     22 C6         -0.2040   17.9320    2.6700 C.2       1 GDP         0.2628
     23 O6          0.3240   18.1490    3.7660 O.2       1 GDP        -0.3594
     24 N1         -0.3060   16.6150    2.2770 N.am      1 GDP        -0.2478
     25 C2         -1.2610   16.2130    1.3570 C.cat     1 GDP         0.2041
     26 N2         -1.4080   14.9170    1.1090 N.pl3     1 GDP        -0.3327
     27 N3         -2.1440   17.1250    0.8280 N.pl3     1 GDP        -0.1901
     28 C4         -2.0600   18.4210    1.2140 C.2       1 GDP         0.3268
     29 H          -3.1077   22.5679   -2.1881 H         1 GDP         0.0648
     30 H          -4.8297   23.0538   -2.2388 H         1 GDP         0.0648
     31 H          -4.6858   20.7450   -2.8195 H         1 GDP         0.0651
     32 H          -6.4051   21.5967   -0.8179 H         1 GDP         0.0648
     33 H          -7.4373   19.6743   -1.1440 H         1 GDP         0.2100
     34 H          -5.0485   20.9525    1.0786 H         1 GDP         0.0677
     35 H          -6.2450   18.5301    0.3388 H         1 GDP         0.2101
     36 H          -4.1670   18.4509   -0.2667 H         1 GDP         0.1021
     37 H          -2.6671   21.6215    1.4649 H         1 GDP         0.1823
     38 H           0.3328   15.9239    2.6703 H         1 GDP         0.1819
     39 H          -0.8230   14.2356    1.5926 H         1 GDP         0.1774
     40 H          -2.1060   14.6027    0.4349 H         1 GDP         0.1774
     41 H          -2.8516   16.8301    0.1551 H         1 GDP         0.2519
@<TRIPOS>BOND
     1    1    2 ar 
     2    1    3 ar 
     3    1    4 ar 
     4    1    5 1  
     5    5    6 1  
     6    6    7 ar 
     7    6    8 ar 
     8    6    9 1  
     9    9   10 1  
    10   10   11 1  
    11   11   12 1  
    12   11   13 1  
    13   12   17 1  
    14   13   14 1  
    15   13   15 1  
    16   15   16 1  
    17   15   17 1  
    18   17   18 1  
    19   18   19 1  
    20   18   28 1  
    21   19   20 2  
    22   20   21 1  
    23   21   22 1  
    24   21   28 2  
    25   22   23 2  
    26   22   24 am 
    27   24   25 ar 
    28   25   26 ar 
    29   25   27 ar 
    30   27   28 1  
    31   10   29 1  
    32   10   30 1  
    33   11   31 1  
    34   13   32 1  
    35   14   33 1  
    36   15   34 1  
    37   16   35 1  
    38   17   36 1  
    39   19   37 1  
    40   24   38 1  
    41   26   39 1  
    42   26   40 1  
    43   27   41 1  
@<TRIPOS>SUBSTRUCTURE
     1 GDP         1

