### 
### Created by X-TOOL on Fri Sep 26 17:34:42 2014
### 

@<TRIPOS>MOLECULE
3dwb_ligand
   69    71     1     0     0
SMALL
GAST_HUCK


@<TRIPOS>ATOM
      1 N          81.6290   31.7360   40.3070 N.am      1 RDF        -0.2546
      2 CA         82.3110   33.0160   40.1880 C.3       1 RDF         0.1246
      3 C          83.7850   32.9150   40.3340 C.2       1 RDF         0.1995
      4 O          84.5100   33.2340   39.4270 O.2       1 RDF        -0.3949
      5 CB         81.7410   33.9000   41.2630 C.3       1 RDF        -0.0136
      6 CG         82.1180   35.3660   41.0950 C.3       1 RDF        -0.0429
      7 CD1        81.3070   36.1500   42.1150 C.3       1 RDF        -0.0625
      8 CD2        81.8880   35.9320   39.6870 C.3       1 RDF        -0.0625
      9 N0         84.2830   32.4520   41.4540 N.am      1 RDF        -0.2688
     10 CA0        85.7410   32.3270   41.6310 C.3       1 RDF         0.0986
     11 C0         85.9710   31.0140   42.3540 C.2       1 RDF         0.0613
     12 O0         84.9880   30.5310   42.9980 O.co2     1 RDF        -0.5665
     13 CB0        86.2380   33.5810   42.4150 C.3       1 RDF        -0.0013
     14 CG0        85.5800   33.6070   43.7810 C.2       1 RDF        -0.0424
     15 CD3        84.3100   34.0580   44.0980 C.2       1 RDF         0.0166
     16 CD4        86.0960   33.1100   44.9660 C.ar      1 RDF        -0.0214
     17 NE1        84.0660   33.8640   45.4250 N.pl3     1 RDF        -0.2891
     18 CE2        85.1640   33.2880   45.9710 C.ar      1 RDF         0.0603
     19 CE3        87.3410   32.5530   45.2390 C.ar      1 RDF        -0.0747
     20 CZ2        85.4830   32.8910   47.2700 C.ar      1 RDF        -0.0443
     21 CZ3        87.6420   32.1300   46.5360 C.ar      1 RDF        -0.0792
     22 CH2        86.7070   32.3090   47.5430 C.ar      1 RDF        -0.0768
     23 OXT        87.1040   30.4740   42.2920 O.co2     1 RDF        -0.5665
     24 C1         83.0650   28.8160   40.5030 C.3       1 RDF         0.2225
     25 O1         82.0160   29.1310   39.5920 O.3       1 RDF        -0.2276
     26 C2         82.6370   27.7610   41.5100 C.3       1 RDF         0.1394
     27 O2         83.7110   27.6130   42.4750 O.3       1 RDF        -0.3837
     28 C3         82.4080   26.4510   40.7490 C.3       1 RDF         0.1144
     29 O3         81.9540   25.3970   41.5860 O.3       1 RDF        -0.3864
     30 C4         83.7300   26.0690   40.0970 C.3       1 RDF         0.1095
     31 O4         83.6940   24.7710   39.5170 O.3       1 RDF        -0.3866
     32 C5         83.9990   27.1390   39.0450 C.3       1 RDF         0.0877
     33 O5         84.1590   28.3820   39.7160 O.3       1 RDF        -0.3388
     34 C6         85.2090   26.7780   38.2140 C.3       1 RDF        -0.0360
     35 P          81.8310   30.6550   39.0600 P.3       1 RDF         0.2076
     36 O1P        83.1560   30.8130   38.4140 O.co2     1 RDF        -0.6075
     37 O2P        80.5370   30.6760   38.2510 O.co2     1 RDF        -0.6075
     38 H1         81.0645   31.5165   41.1027 H         1 RDF         0.1685
     39 H2         82.0921   33.4475   39.2002 H         1 RDF         0.0753
     40 H3         82.1152   33.5520   42.2371 H         1 RDF         0.0311
     41 H4         80.6445   33.8160   41.2402 H         1 RDF         0.0311
     42 H5         83.1882   35.4741   41.3253 H         1 RDF         0.0298
     43 H6         81.5475   37.2200   42.0304 H         1 RDF         0.0232
     44 H7         81.5528   35.7980   43.1277 H         1 RDF         0.0232
     45 H8         80.2342   35.9992   41.9246 H         1 RDF         0.0232
     46 H9         82.4795   35.3568   38.9595 H         1 RDF         0.0232
     47 H10        82.1991   36.9867   39.6604 H         1 RDF         0.0232
     48 H11        80.8206   35.8580   39.4319 H         1 RDF         0.0232
     49 H12        83.6687   32.1811   42.1951 H         1 RDF         0.1876
     50 H13        86.2455   32.2950   40.6541 H         1 RDF         0.0741
     51 H14        85.9700   34.4921   41.8600 H         1 RDF         0.0390
     52 H15        87.3305   33.5318   42.5336 H         1 RDF         0.0390
     53 H16        83.6098   34.5019   43.3919 H         1 RDF         0.0795
     54 H17        83.1999   34.1116   45.9244 H         1 RDF         0.2216
     55 H18        88.0750   32.4475   44.4483 H         1 RDF         0.0540
     56 H19        84.7668   33.0398   48.0700 H         1 RDF         0.0541
     57 H20        88.5976   31.6663   46.7525 H         1 RDF         0.0510
     58 H21        86.9372   31.9901   48.5531 H         1 RDF         0.0530
     59 H22        83.3520   29.7228   41.0555 H         1 RDF         0.1002
     60 H23        81.7115   28.0659   42.0203 H         1 RDF         0.0675
     61 H24        83.4700   26.9574   43.1189 H         1 RDF         0.2101
     62 H25        81.6519   26.6216   39.9685 H         1 RDF         0.0648
     63 H26        81.8285   24.6117   41.0664 H         1 RDF         0.2100
     64 H27        84.5283   26.0869   40.8536 H         1 RDF         0.0646
     65 H28        84.5366   24.5764   39.1238 H         1 RDF         0.2100
     66 H29        83.1302   27.2091   38.3740 H         1 RDF         0.0621
     67 H30        85.3849   27.5619   37.4626 H         1 RDF         0.0255
     68 H31        85.0327   25.8176   37.7075 H         1 RDF         0.0255
     69 H32        86.0899   26.6919   38.8671 H         1 RDF         0.0255
@<TRIPOS>BOND
     1    1    2 1  
     2   35    1 am 
     3    2    3 1  
     4    2    5 1  
     5    3    4 2  
     6    3    9 am 
     7    5    6 1  
     8    6    7 1  
     9    6    8 1  
    10    9   10 1  
    11   10   11 1  
    12   10   13 1  
    13   11   12 ar 
    14   11   23 ar 
    15   13   14 1  
    16   14   15 2  
    17   14   16 1  
    18   15   17 1  
    19   16   18 ar 
    20   16   19 ar 
    21   18   17 1  
    22   18   20 ar 
    23   19   21 ar 
    24   20   22 ar 
    25   21   22 ar 
    26   25   24 1  
    27   24   26 1  
    28   24   33 1  
    29   25   35 1  
    30   26   27 1  
    31   26   28 1  
    32   28   29 1  
    33   28   30 1  
    34   30   31 1  
    35   30   32 1  
    36   32   33 1  
    37   32   34 1  
    38   35   36 ar 
    39   35   37 ar 
    40    1   38 1  
    41    2   39 1  
    42    5   40 1  
    43    5   41 1  
    44    6   42 1  
    45    7   43 1  
    46    7   44 1  
    47    7   45 1  
    48    8   46 1  
    49    8   47 1  
    50    8   48 1  
    51    9   49 1  
    52   10   50 1  
    53   13   51 1  
    54   13   52 1  
    55   15   53 1  
    56   17   54 1  
    57   19   55 1  
    58   20   56 1  
    59   21   57 1  
    60   22   58 1  
    61   24   59 1  
    62   26   60 1  
    63   27   61 1  
    64   28   62 1  
    65   29   63 1  
    66   30   64 1  
    67   31   65 1  
    68   32   66 1  
    69   34   67 1  
    70   34   68 1  
    71   34   69 1  
@<TRIPOS>SUBSTRUCTURE
     1 RDF         1

