### 
### Created by X-TOOL on Fri Sep 26 17:34:48 2014
### 

@<TRIPOS>MOLECULE
3m89_ligand
   46    48     1     0     0
SMALL
GAST_HUCK


@<TRIPOS>ATOM
      1 PG        -18.2990  -22.9910  -20.8370 P.3       1 GSP         0.2197
      2 O3B       -19.0790  -23.0480  -19.3760 O.3       1 GSP        -0.1434
      3 S1G       -18.9740  -24.6010  -21.5030 S.3       1 GSP        -0.0461
      4 O2G       -18.7890  -21.6980  -21.3940 O.co2     1 GSP        -0.6077
      5 O3G       -16.8340  -23.2910  -20.7280 O.co2     1 GSP        -0.6077
      6 PB        -19.0160  -21.9530  -18.1140 P.3       1 GSP         0.3347
      7 O1B       -18.1790  -20.9390  -18.7060 O.co2     1 GSP        -0.6076
      8 O2B       -20.3150  -21.4010  -17.6090 O.co2     1 GSP        -0.6076
      9 PA        -18.9770  -23.8550  -16.0120 P.3       1 GSP         0.2978
     10 O1A       -20.0570  -23.2180  -15.2070 O.co2     1 GSP        -0.6127
     11 O2A       -19.1970  -25.0660  -16.8820 O.co2     1 GSP        -0.6127
     12 O3A       -18.3170  -22.7270  -16.8870 O.3       1 GSP        -0.1263
     13 O5'       -17.7740  -24.2360  -14.9460 O.3       1 GSP        -0.2476
     14 C5'       -16.4520  -23.5800  -14.8870 C.3       1 GSP         0.1128
     15 C4'       -15.6960  -24.2420  -13.7520 C.3       1 GSP         0.1190
     16 O4'       -16.6280  -24.6030  -12.6480 O.3       1 GSP        -0.3347
     17 C3'       -14.9890  -25.5960  -14.1380 C.3       1 GSP         0.1151
     18 O3'       -13.6270  -25.5400  -13.5980 O.3       1 GSP        -0.3864
     19 C2'       -15.8500  -26.7430  -13.4630 C.3       1 GSP         0.1407
     20 O2'       -15.0340  -27.8780  -13.0160 O.3       1 GSP        -0.3835
     21 C1'       -16.6010  -26.0140  -12.2760 C.3       1 GSP         0.2218
     22 N9        -18.0540  -26.3520  -12.0770 N.pl3     1 GSP        -0.0954
     23 C8        -19.0880  -26.6970  -12.9460 C.2       1 GSP         0.1855
     24 N7        -20.2530  -26.9380  -12.4070 N.2       1 GSP        -0.1929
     25 C5        -19.9880  -26.7270  -11.0460 C.2       1 GSP         0.2558
     26 C6        -20.9040  -26.8460   -9.8900 C.2       1 GSP         0.2628
     27 O6        -22.0980  -27.1550  -10.0260 O.2       1 GSP        -0.3594
     28 N1        -20.2120  -26.5410   -8.6590 N.am      1 GSP        -0.2478
     29 C2        -18.8360  -26.1880   -8.5230 C.cat     1 GSP         0.2041
     30 N2        -18.3150  -25.9350   -7.3370 N.pl3     1 GSP        -0.3327
     31 N3        -18.0020  -26.0930   -9.6130 N.pl3     1 GSP        -0.1901
     32 C4        -18.6360  -26.3780  -10.8380 C.2       1 GSP         0.3268
     33 H1        -18.6049  -24.7621  -22.4270 H         1 GSP         0.1255
     34 H2        -16.5695  -22.5043  -14.6894 H         1 GSP         0.0648
     35 H3        -15.9142  -23.7219  -15.8360 H         1 GSP         0.0648
     36 H4        -14.9392  -23.5318  -13.3876 H         1 GSP         0.0651
     37 H5        -14.9573  -25.7341  -15.2288 H         1 GSP         0.0648
     38 H6        -13.1690  -26.3441  -13.8129 H         1 GSP         0.2100
     39 H7        -16.5875  -27.1230  -14.1853 H         1 GSP         0.0677
     40 H8        -14.3982  -27.5774  -12.3773 H         1 GSP         0.2101
     41 H9        -16.0506  -26.1841  -11.3389 H         1 GSP         0.1021
     42 H10       -18.9320  -26.7624  -14.0218 H         1 GSP         0.1823
     43 H11       -20.7513  -26.5813   -7.8179 H         1 GSP         0.1819
     44 H12       -17.3201  -25.6815   -7.2550 H         1 GSP         0.1774
     45 H13       -18.9034  -25.9911   -6.4934 H         1 GSP         0.1774
     46 H14       -17.0069  -25.8373   -9.5401 H         1 GSP         0.2519
@<TRIPOS>BOND
     1    2    1 1  
     2    1    3 1  
     3    1    4 ar 
     4    1    5 ar 
     5    6    2 1  
     6    6    7 ar 
     7    6    8 ar 
     8   12    6 1  
     9    9   10 ar 
    10    9   11 ar 
    11    9   12 1  
    12    9   13 1  
    13   13   14 1  
    14   14   15 1  
    15   15   16 1  
    16   15   17 1  
    17   16   21 1  
    18   17   18 1  
    19   17   19 1  
    20   19   20 1  
    21   19   21 1  
    22   21   22 1  
    23   22   23 1  
    24   22   32 1  
    25   23   24 2  
    26   24   25 1  
    27   25   26 1  
    28   25   32 2  
    29   26   27 2  
    30   26   28 am 
    31   28   29 ar 
    32   29   30 ar 
    33   29   31 ar 
    34   31   32 1  
    35    3   33 1  
    36   14   34 1  
    37   14   35 1  
    38   15   36 1  
    39   17   37 1  
    40   18   38 1  
    41   19   39 1  
    42   20   40 1  
    43   21   41 1  
    44   23   42 1  
    45   28   43 1  
    46   30   44 1  
    47   30   45 1  
    48   31   46 1  
@<TRIPOS>SUBSTRUCTURE
     1 GSP         1

