### 
### Created by X-TOOL on Fri Sep 26 17:34:52 2014
### 

@<TRIPOS>MOLECULE
3od0_ligand
   35    38     1     0     0
SMALL
GAST_HUCK


@<TRIPOS>ATOM
      1 PA          3.0270  -34.2670   27.3260 P.3       1 PCG         0.2557
      2 O1A         4.3660  -33.6020   27.1110 O.co2     1 PCG        -0.6177
      3 O2A         1.7570  -33.4760   27.4790 O.co2     1 PCG        -0.6177
      4 O5'         3.1190  -35.0840   28.7010 O.3       1 PCG        -0.2514
      5 C5'         2.2030  -36.1400   28.9620 C.3       1 PCG         0.1128
      6 C4'         2.2780  -37.0550   27.7620 C.3       1 PCG         0.1243
      7 O4'         1.4170  -38.1800   27.8410 O.3       1 PCG        -0.3343
      8 C3'         1.7890  -36.3570   26.5200 C.3       1 PCG         0.1541
      9 O3'         2.7620  -35.3780   26.1890 O.3       1 PCG        -0.2453
     10 C2'         1.5860  -37.5250   25.5690 C.3       1 PCG         0.1461
     11 O2'         2.7740  -37.7880   24.8250 O.3       1 PCG        -0.3831
     12 C1'         1.2820  -38.6880   26.5090 C.3       1 PCG         0.2222
     13 N9         -0.0960  -39.2000   26.3080 N.pl3     1 PCG        -0.0954
     14 C8         -0.4950  -40.4330   25.9170 C.2       1 PCG         0.1855
     15 N7         -1.8520  -40.5430   25.8510 N.2       1 PCG        -0.1929
     16 C5         -2.3390  -39.3410   26.2130 C.2       1 PCG         0.2558
     17 C6         -3.6820  -38.7300   26.3590 C.2       1 PCG         0.2628
     18 O6         -4.7050  -39.4110   26.1170 O.2       1 PCG        -0.3594
     19 N1         -3.7460  -37.4450   26.7610 N.am      1 PCG        -0.2478
     20 C2         -2.6390  -36.6990   27.0290 C.cat     1 PCG         0.2041
     21 N2         -2.7520  -35.4040   27.4310 N.pl3     1 PCG        -0.3327
     22 N3         -1.3830  -37.1950   26.9180 N.pl3     1 PCG        -0.1901
     23 C4         -1.1830  -38.4750   26.5270 C.2       1 PCG         0.3268
     24 H           1.1918  -35.7608   29.1092 H         1 PCG         0.0647
     25 H           2.4580  -36.6685   29.8805 H         1 PCG         0.0647
     26 H           3.3269  -37.3502   27.7349 H         1 PCG         0.0655
     27 H           0.8625  -35.7839   26.5563 H         1 PCG         0.0712
     28 H           0.8023  -37.3432   24.8336 H         1 PCG         0.0681
     29 H           3.0088  -37.0102   24.3136 H         1 PCG         0.2102
     30 H           1.9639  -39.5165   26.3172 H         1 PCG         0.1022
     31 H           0.1915  -41.2462   25.6815 H         1 PCG         0.1823
     32 H          -4.6635  -37.0127   26.8691 H         1 PCG         0.1819
     33 H          -3.6743  -34.9809   27.5348 H         1 PCG         0.1774
     34 H          -1.9144  -34.8564   27.6285 H         1 PCG         0.1774
     35 H          -0.5827  -36.5995   27.1306 H         1 PCG         0.2519
@<TRIPOS>BOND
     1    1    2 ar 
     2    1    3 ar 
     3    1    4 1  
     4    1    9 1  
     5    4    5 1  
     6    5    6 1  
     7    6    7 1  
     8    6    8 1  
     9    7   12 1  
    10    8    9 1  
    11    8   10 1  
    12   10   11 1  
    13   10   12 1  
    14   12   13 1  
    15   13   14 1  
    16   13   23 1  
    17   14   15 2  
    18   15   16 1  
    19   16   17 1  
    20   16   23 2  
    21   17   18 2  
    22   17   19 am 
    23   19   20 ar 
    24   20   21 ar 
    25   20   22 ar 
    26   22   23 1  
    27    5   24 1  
    28    5   25 1  
    29    6   26 1  
    30    8   27 1  
    31   10   28 1  
    32   11   29 1  
    33   12   30 1  
    34   14   31 1  
    35   19   32 1  
    36   21   33 1  
    37   21   34 1  
    38   22   35 1  
@<TRIPOS>SUBSTRUCTURE
     1 PCG         1

