### 
### Created by X-TOOL on Fri Sep 26 17:34:47 2014
### 

@<TRIPOS>MOLECULE
3okc_ligand
   41    43     1     0     0
SMALL
GAST_HUCK


@<TRIPOS>ATOM
      1 PB          4.4720    6.0800   26.3160 P.3       1 GDP         0.2069
      2 O1B         5.2130    5.3030   25.3300 O.co2     1 GDP        -0.5891
      3 O2B         4.9650    5.9140   27.4490 O.co2     1 GDP        -0.5891
      4 O3B         3.2960    5.6580   26.3400 O.co2     1 GDP        -0.5891
      5 O3A         4.4680    7.4900   25.9540 O.3       1 GDP        -0.1548
      6 PA          5.5870    8.4250   26.0470 P.3       1 GDP         0.3276
      7 O1A         5.8790    8.6360   27.2460 O.co2     1 GDP        -0.5556
      8 O2A         5.2380    9.5190   25.5310 O.co2     1 GDP        -0.5556
      9 O5'         6.7640    7.9160   25.3600 O.3       1 GDP        -0.2436
     10 C5'         6.7950    7.7700   23.9380 C.3       1 GDP         0.1132
     11 C4'         8.2280    7.8240   23.4180 C.3       1 GDP         0.1190
     12 O4'         8.3330    7.0940   22.1820 O.3       1 GDP        -0.3347
     13 C3'         8.6410    9.2640   23.1390 C.3       1 GDP         0.1151
     14 O3'         9.9510    9.5080   23.6610 O.3       1 GDP        -0.3864
     15 C2'         8.6560    9.3750   21.6280 C.3       1 GDP         0.1407
     16 O2'         9.6910   10.2560   21.1840 O.3       1 GDP        -0.3835
     17 C1'         8.8760    7.9400   21.1580 C.3       1 GDP         0.2218
     18 N9          8.2580    7.7210   19.8200 N.pl3     1 GDP        -0.0954
     19 C8          6.9470    7.6610   19.5200 C.2       1 GDP         0.1855
     20 N7          6.8060    7.4550   18.1870 N.2       1 GDP        -0.1929
     21 C5          8.0460    7.3880   17.6510 C.2       1 GDP         0.2558
     22 C6          8.5300    7.1960   16.3580 C.2       1 GDP         0.2628
     23 O6          7.7390    7.0430   15.4020 O.2       1 GDP        -0.3594
     24 N1          9.8670    7.1770   16.1390 N.am      1 GDP        -0.2478
     25 C2         10.7400    7.3410   17.1650 C.cat     1 GDP         0.2041
     26 N2         12.0740    7.3210   16.9320 N.pl3     1 GDP        -0.3327
     27 N3         10.2900    7.5310   18.4280 N.pl3     1 GDP        -0.1901
     28 C4          8.9550    7.5580   18.6880 C.2       1 GDP         0.3268
     29 H           6.2276    8.5851   23.4889 H         1 GDP         0.0648
     30 H           6.3621    6.8050   23.6746 H         1 GDP         0.0648
     31 H           8.8745    7.3871   24.1791 H         1 GDP         0.0651
     32 H           7.9677    9.9857   23.6015 H         1 GDP         0.0648
     33 H          10.2020   10.4168   23.4805 H         1 GDP         0.2100
     34 H           7.7379    9.8003   21.2228 H         1 GDP         0.0677
     35 H          10.5420    9.9206   21.4753 H         1 GDP         0.2101
     36 H           9.9324    7.7103   21.0187 H         1 GDP         0.1021
     37 H           6.1297    7.7618   20.2341 H         1 GDP         0.1823
     38 H          10.2212    7.0379   15.1926 H         1 GDP         0.1819
     39 H          12.4241    7.1825   15.9840 H         1 GDP         0.1774
     40 H          12.7286    7.4444   17.7045 H         1 GDP         0.1774
     41 H          10.9568    7.6548   19.1899 H         1 GDP         0.2519
@<TRIPOS>BOND
     1    1    2 ar 
     2    1    3 ar 
     3    1    4 ar 
     4    1    5 1  
     5    5    6 1  
     6    6    7 ar 
     7    6    8 ar 
     8    6    9 1  
     9    9   10 1  
    10   10   11 1  
    11   11   12 1  
    12   11   13 1  
    13   12   17 1  
    14   13   14 1  
    15   13   15 1  
    16   15   16 1  
    17   15   17 1  
    18   17   18 1  
    19   18   19 1  
    20   18   28 1  
    21   19   20 2  
    22   20   21 1  
    23   21   22 1  
    24   21   28 2  
    25   22   23 2  
    26   22   24 am 
    27   24   25 ar 
    28   25   26 ar 
    29   25   27 ar 
    30   27   28 1  
    31   10   29 1  
    32   10   30 1  
    33   11   31 1  
    34   13   32 1  
    35   14   33 1  
    36   15   34 1  
    37   16   35 1  
    38   17   36 1  
    39   19   37 1  
    40   24   38 1  
    41   26   39 1  
    42   26   40 1  
    43   27   41 1  
@<TRIPOS>SUBSTRUCTURE
     1 GDP         1

