### 
### Created by X-TOOL on Fri Sep 26 17:34:56 2014
### 

@<TRIPOS>MOLECULE
3qi2_ligand
   41    43     1     0     0
SMALL
GAST_HUCK


@<TRIPOS>ATOM
      1 PB        -28.0040   17.0970   29.6850 P.3       1 GDP         0.2069
      2 O1B       -26.9020   18.0600   29.3150 O.co2     1 GDP        -0.5891
      3 O2B       -28.6530   16.5570   28.4350 O.co2     1 GDP        -0.5891
      4 O3B       -27.4360   15.9400   30.4680 O.co2     1 GDP        -0.5891
      5 O3A       -29.1040   17.8470   30.5860 O.3       1 GDP        -0.1548
      6 PA        -28.8070   19.3140   31.1710 P.3       1 GDP         0.3276
      7 O1A       -28.5760   20.2920   30.0450 O.co2     1 GDP        -0.5556
      8 O2A       -27.6250   19.2960   32.1070 O.co2     1 GDP        -0.5556
      9 O5'       -30.1660   19.6770   31.9500 O.3       1 GDP        -0.2436
     10 C5'       -31.1540   20.4470   31.2700 C.3       1 GDP         0.1132
     11 C4'       -31.8510   21.3870   32.2400 C.3       1 GDP         0.1190
     12 O4'       -32.3150   20.6540   33.3700 O.3       1 GDP        -0.3347
     13 C3'       -30.8840   22.4410   32.7530 C.3       1 GDP         0.1151
     14 O3'       -31.1940   23.7130   32.1820 O.3       1 GDP        -0.3864
     15 C2'       -31.0810   22.4840   34.2520 C.3       1 GDP         0.1407
     16 O2'       -31.5590   23.7720   34.6440 O.3       1 GDP        -0.3835
     17 C1'       -32.1270   21.4250   34.5570 C.3       1 GDP         0.2218
     18 N9        -31.6430   20.5600   35.6570 N.pl3     1 GDP        -0.0954
     19 C8        -30.6060   19.7040   35.5960 C.2       1 GDP         0.1855
     20 N7        -30.4320   19.0650   36.7810 N.2       1 GDP        -0.1929
     21 C5        -31.3810   19.5140   37.6230 C.2       1 GDP         0.2558
     22 C6        -31.7720   19.2570   39.0270 C.2       1 GDP         0.2628
     23 O6        -31.1440   18.4330   39.7240 O.2       1 GDP        -0.3594
     24 N1        -32.8170   19.9340   39.5220 N.am      1 GDP        -0.2478
     25 C2        -33.5100   20.8270   38.7890 C.cat     1 GDP         0.2041
     26 N2        -34.5550   21.4710   39.3610 N.pl3     1 GDP        -0.3327
     27 N3        -33.2090   21.1130   37.4970 N.pl3     1 GDP        -0.1901
     28 C4        -32.1760   20.4980   36.8760 C.2       1 GDP         0.3268
     29 H         -31.8924   19.7735   30.8348 H         1 GDP         0.0648
     30 H         -30.6714   21.0352   30.4895 H         1 GDP         0.0648
     31 H         -32.6782   21.8595   31.7102 H         1 GDP         0.0651
     32 H         -29.8536   22.2049   32.4872 H         1 GDP         0.0648
     33 H         -32.0890   23.9618   32.4244 H         1 GDP         0.2100
     34 H         -30.1507   22.3005   34.7896 H         1 GDP         0.0677
     35 H         -30.9191   24.4407   34.3893 H         1 GDP         0.2101
     36 H         -33.0683   21.8801   34.8650 H         1 GDP         0.1021
     37 H         -29.9880   19.5450   34.7123 H         1 GDP         0.1823
     38 H         -33.0978   19.7673   40.4883 H         1 GDP         0.1819
     39 H         -34.8052   21.2764   40.3305 H         1 GDP         0.1774
     40 H         -35.0919   22.1506   38.8223 H         1 GDP         0.1774
     41 H         -33.7673   21.7988   36.9887 H         1 GDP         0.2519
@<TRIPOS>BOND
     1    1    2 ar 
     2    1    3 ar 
     3    1    4 ar 
     4    1    5 1  
     5    5    6 1  
     6    6    7 ar 
     7    6    8 ar 
     8    6    9 1  
     9    9   10 1  
    10   10   11 1  
    11   11   12 1  
    12   11   13 1  
    13   12   17 1  
    14   13   14 1  
    15   13   15 1  
    16   15   16 1  
    17   15   17 1  
    18   17   18 1  
    19   18   19 1  
    20   18   28 1  
    21   19   20 2  
    22   20   21 1  
    23   21   22 1  
    24   21   28 2  
    25   22   23 2  
    26   22   24 am 
    27   24   25 ar 
    28   25   26 ar 
    29   25   27 ar 
    30   27   28 1  
    31   10   29 1  
    32   10   30 1  
    33   11   31 1  
    34   13   32 1  
    35   14   33 1  
    36   15   34 1  
    37   16   35 1  
    38   17   36 1  
    39   19   37 1  
    40   24   38 1  
    41   26   39 1  
    42   26   40 1  
    43   27   41 1  
@<TRIPOS>SUBSTRUCTURE
     1 GDP         1

