### 
### Created by X-TOOL on Fri Sep 26 17:34:57 2014
### 

@<TRIPOS>MOLECULE
3vjt_ligand
   63    81     1     0     0
SMALL
GAST_HUCK


@<TRIPOS>ATOM
      1 B1         13.1110    5.6940   26.0500 B         1 MOL         1.0000
      2 C1         13.3660    2.8430   26.1370 C.3       1 MOL        -2.5112
      3 O1          9.5950   -2.0360   28.6960 O.3       1 MOL        -0.3886
      4 B2         13.2690    5.0560   24.4420 B         1 MOL         1.0000
      5 C2         12.7360    1.4570   26.4460 C.3       1 MOL        -0.3657
      6 O2         15.1450    7.2260   22.4450 O.3       1 MOL        -0.3811
      7 B3         14.8470    4.3570   24.2020 B         1 MOL         1.0000
      8 C3         11.3050    1.5860   26.9860 C.3       1 MOL        -0.0999
      9 O3         16.1200    8.5580   19.4380 O.3       1 MOL        -0.3894
     10 B4         15.6990    4.4960   25.7410 B         1 MOL         1.0000
     11 C4         10.8500    0.2190   27.5300 C.3       1 MOL        -0.0540
     12 O4         14.4130    4.5810   18.3270 O.3       1 MOL        -0.3949
     13 B5         14.6200    5.3280   26.8900 B         1 MOL         1.0000
     14 C5          9.3990    0.2940   28.0310 C.3       1 MOL        -0.0241
     15 B6         12.3240    4.1760   25.5780 B         1 MOL         1.0000
     16 C6          8.3690   -1.6300   26.6930 C.3       1 MOL        -0.0269
     17 B7         13.4070    3.3410   24.4340 B         1 MOL         1.0000
     18 C7          7.4770   -0.9460   29.0140 C.3       1 MOL        -0.0269
     19 B8         14.9330    2.9590   25.2710 B         1 MOL         1.0000
     20 C8          6.8660   -2.3080   29.3810 C.3       1 MOL        -0.0627
     21 B9         14.7910    3.5680   26.9490 B         1 MOL         1.0000
     22 C9          8.7180   -1.0890   28.1020 C.3       1 MOL         0.0656
     23 B10        13.1780    4.3220   27.1400 B         1 MOL         1.0000
     24 C10         7.4560   -0.6910   25.8880 C.3       1 MOL        -0.0627
     25 C21        14.6390    5.7460   25.2190 C.3       1 MOL        -2.5091
     26 C22        15.0990    7.1440   24.7830 C.3       1 MOL        -0.3415
     27 C23        14.3400    7.5730   23.5360 C.3       1 MOL         0.0011
     28 C24        14.7900    8.0510   21.3770 C.3       1 MOL         0.0735
     29 C25        15.5100    7.5140   20.1670 C.3       1 MOL         0.0806
     30 C26        14.5420    6.7850   19.2660 C.3       1 MOL        -0.0014
     31 C27        14.6640    5.2940   19.5170 C.3       1 MOL         0.0466
     32 H           9.1614   -2.8916   28.7349 H         1 MOL         0.2102
     33 H          13.3449    0.9666   27.2055 H         1 MOL        -0.0324
     34 H          12.7013    0.8833   25.5198 H         1 MOL        -0.0324
     35 H          10.6371    1.9041   26.1855 H         1 MOL         0.0227
     36 H          11.2788    2.3270   27.7849 H         1 MOL         0.0227
     37 H          16.5713    8.1920   18.6738 H         1 MOL         0.2099
     38 H          11.4968   -0.0645   28.3603 H         1 MOL         0.0265
     39 H          10.9102   -0.5183   26.7294 H         1 MOL         0.0265
     40 H          14.4927    3.6395   18.4966 H         1 MOL         0.2094
     41 H           8.8349    0.9079   27.3288 H         1 MOL         0.0293
     42 H           9.4150    0.7101   29.0383 H         1 MOL         0.0293
     43 H           7.8371   -2.5722   26.8251 H         1 MOL         0.0290
     44 H           9.3027   -1.7342   26.1403 H         1 MOL         0.0290
     45 H           7.7884   -0.4546   29.9358 H         1 MOL         0.0290
     46 H           6.7243   -0.3709   28.4747 H         1 MOL         0.0290
     47 H           6.5606   -2.8248   28.4712 H         1 MOL         0.0231
     48 H           7.6078   -2.9071   29.9091 H         1 MOL         0.0231
     49 H           5.9979   -2.1545   30.0220 H         1 MOL         0.0231
     50 H           6.5189   -0.5481   26.4261 H         1 MOL         0.0231
     51 H           7.9515    0.2710   25.7568 H         1 MOL         0.0231
     52 H           7.2526   -1.1324   24.9124 H         1 MOL         0.0231
     53 H          16.1664    7.1192   24.5636 H         1 MOL        -0.0304
     54 H          14.9020    7.8542   25.5861 H         1 MOL        -0.0304
     55 H          13.3699    7.0793   23.4792 H         1 MOL         0.0521
     56 H          14.1394    8.6443   23.5492 H         1 MOL         0.0521
     57 H          15.0710    9.0860   21.5720 H         1 MOL         0.0585
     58 H          13.7109    8.0489   21.2230 H         1 MOL         0.0585
     59 H          16.2807    6.8261   20.5149 H         1 MOL         0.0617
     60 H          14.7736    7.0031   18.2235 H         1 MOL         0.0313
     61 H          13.5240    7.1120   19.4778 H         1 MOL         0.0313
     62 H          15.6735    5.0705   19.8621 H         1 MOL         0.0558
     63 H          13.9363    4.9974   20.2723 H         1 MOL         0.0558
@<TRIPOS>BOND
     1    1   13 1  
     2    1   23 1  
     3   25    1 1  
     4    2    5 1  
     5   17    2 1  
     6   21    2 1  
     7   22    3 1  
     8    4   15 1  
     9    4   17 1  
    10   25    4 1  
    11    5    8 1  
    12    6   27 1  
    13   28    6 1  
    14   17    7 1  
    15   19    7 1  
    16    8   11 1  
    17   29    9 1  
    18   10   19 1  
    19   10   21 1  
    20   25   10 1  
    21   11   14 1  
    22   31   12 1  
    23   23   13 1  
    24   14   22 1  
    25   15   23 1  
    26   22   16 1  
    27   16   24 1  
    28   18   20 1  
    29   22   18 1  
    30   21   19 1  
    31   26   25 1  
    32   27   26 1  
    33   29   28 1  
    34   30   29 1  
    35   30   31 1  
    36    3   32 1  
    37    5   33 1  
    38    5   34 1  
    39    8   35 1  
    40    8   36 1  
    41    9   37 1  
    42   11   38 1  
    43   11   39 1  
    44   12   40 1  
    45   14   41 1  
    46   14   42 1  
    47   16   43 1  
    48   16   44 1  
    49   18   45 1  
    50   18   46 1  
    51   20   47 1  
    52   20   48 1  
    53   20   49 1  
    54   24   50 1  
    55   24   51 1  
    56   24   52 1  
    57   26   53 1  
    58   26   54 1  
    59   27   55 1  
    60   27   56 1  
    61   28   57 1  
    62   28   58 1  
    63   29   59 1  
    64   30   60 1  
    65   30   61 1  
    66   31   62 1  
    67   31   63 1  
    68   19    2 1  
    69   19   17 1  
    70    7   10 1  
    71    7   25 1  
    72   10   13 1  
    73    1    4 1  
    74    7    4 1  
    75   17   15 1  
    76   15    2 1  
    77   21   23 1  
    78   21   13 1  
    79   23    2 1  
    80   15    1 1  
    81   25   13 1  
@<TRIPOS>SUBSTRUCTURE
     1 MOL         1

