### 
### Created by X-TOOL on Fri Sep 26 17:35:01 2014
### 

@<TRIPOS>MOLECULE
4amw_ligand
   23    23     1     0     0
SMALL
GAST_HUCK


@<TRIPOS>ATOM
      1 O          -0.7690  -22.4290  -21.9760 O.3       1 B9D        -0.3384
      2 C1         -0.0100  -23.2020  -21.0350 C.3       1 B9D         0.0798
      3 F1          0.6640  -21.5760  -23.4360 F         1 B9D        -0.2055
      4 C2          0.0710  -22.4400  -19.6950 C.3       1 B9D         0.1070
      5 O2         -0.9950  -22.7600  -18.7850 O.3       1 B9D        -0.3869
      6 C3          0.1150  -20.9310  -19.9130 C.3       1 B9D         0.1144
      7 O3          0.8790  -20.3240  -18.8550 O.3       1 B9D        -0.3864
      8 C4          0.7360  -20.6210  -21.2720 C.3       1 B9D         0.1440
      9 O4          0.9720  -19.2040  -21.3450 O.3       1 B9D        -0.3834
     10 C5         -0.1120  -21.2310  -22.4160 C.3       1 B9D         0.2622
     11 C6         -1.1590  -20.2680  -22.9440 C.3       1 B9D         0.1055
     12 O6         -2.2360  -20.0590  -22.0230 O.3       1 B9D        -0.3893
     13 H1          1.0049  -23.3645  -21.4270 H         1 B9D         0.0588
     14 H2         -0.5016  -24.1731  -20.8761 H         1 B9D         0.0588
     15 H3          1.0141  -22.7375  -19.2133 H         1 B9D         0.0643
     16 H4         -0.8871  -22.2602  -17.9843 H         1 B9D         0.2100
     17 H5         -0.9098  -20.5320  -19.8903 H         1 B9D         0.0648
     18 H6          0.9090  -19.3837  -18.9869 H         1 B9D         0.2100
     19 H7          1.7191  -21.1125  -21.3170 H         1 B9D         0.0678
     20 H8          1.5642  -18.9464  -20.6483 H         1 B9D         0.2101
     21 H9         -1.5706  -20.6747  -23.8795 H         1 B9D         0.0615
     22 H10        -0.6765  -19.3003  -23.1458 H         1 B9D         0.0615
     23 H11        -2.6658  -20.8877  -21.8468 H         1 B9D         0.2096
@<TRIPOS>BOND
     1    1    2 1  
     2    1   10 1  
     3    2    4 1  
     4   10    3 1  
     5    4    5 1  
     6    4    6 1  
     7    6    7 1  
     8    6    8 1  
     9    8    9 1  
    10    8   10 1  
    11   10   11 1  
    12   11   12 1  
    13    2   13 1  
    14    2   14 1  
    15    4   15 1  
    16    5   16 1  
    17    6   17 1  
    18    7   18 1  
    19    8   19 1  
    20    9   20 1  
    21   11   21 1  
    22   11   22 1  
    23   12   23 1  
@<TRIPOS>SUBSTRUCTURE
     1 B9D         1

