### 
### Created by X-TOOL on Fri Sep 26 17:35:02 2014
### 

@<TRIPOS>MOLECULE
4kg1_ligand
   35    38     1     0     0
SMALL
GAST_HUCK


@<TRIPOS>ATOM
      1 PA        -17.6980   20.2720  -10.4560 P.3       1 PCG         0.2557
      2 O1A       -16.5010   19.4030  -10.6500 O.co2     1 PCG        -0.6177
      3 O2A       -18.7860   20.2490   -9.4290 O.co2     1 PCG        -0.6177
      4 O5'       -18.1320   20.1770  -11.6850 O.3       1 PCG        -0.2514
      5 C5'       -19.1580   21.1030  -12.0550 C.3       1 PCG         0.1128
      6 C4'       -18.4790   22.4400  -11.9260 C.3       1 PCG         0.1243
      7 O4'       -19.1680   23.6400  -12.1700 O.3       1 PCG        -0.3343
      8 C3'       -17.8740   22.6250  -10.5690 C.3       1 PCG         0.1541
      9 O3'       -16.9720   21.5200  -10.2940 O.3       1 PCG        -0.2453
     10 C2'       -17.3160   24.0130  -10.7230 C.3       1 PCG         0.1461
     11 O2'       -15.9500   23.9630  -11.1420 O.3       1 PCG        -0.3831
     12 C1'       -18.2420   24.6460  -11.7740 C.3       1 PCG         0.2222
     13 N9        -18.9870   25.8050  -11.1770 N.pl3     1 PCG        -0.0954
     14 C8        -19.0930   27.0130  -11.7430 C.2       1 PCG         0.1855
     15 N7        -19.8110   27.8560  -10.9810 N.2       1 PCG        -0.1929
     16 C5        -20.1880   27.2010   -9.8990 C.2       1 PCG         0.2558
     17 C6        -20.9730   27.5150   -8.6760 C.2       1 PCG         0.2628
     18 O6        -21.4440   28.6480   -8.5310 O.2       1 PCG        -0.3594
     19 N1        -21.1530   26.5410   -7.7410 N.am      1 PCG        -0.2478
     20 C2        -20.6410   25.2960   -7.8900 C.cat     1 PCG         0.2041
     21 N2        -20.8550   24.3750   -6.9260 N.pl3     1 PCG        -0.3327
     22 N3        -19.9010   24.9330   -9.0020 N.pl3     1 PCG        -0.1901
     23 C4        -19.6520   25.8330  -10.0090 C.2       1 PCG         0.3268
     24 H1        -20.0187   21.0307  -11.3739 H         1 PCG         0.0647
     25 H2        -19.4924   20.9288  -13.0883 H         1 PCG         0.0647
     26 H3        -17.6606   22.4072  -12.6603 H         1 PCG         0.0655
     27 H4        -18.6432   22.6284   -9.7826 H         1 PCG         0.0712
     28 H5        -17.3778   24.5673   -9.7749 H         1 PCG         0.0681
     29 H6        -15.4378   23.4952  -10.4930 H         1 PCG         0.2102
     30 H7        -17.6560   24.9884  -12.6396 H         1 PCG         0.1022
     31 H8        -18.6521   27.2800  -12.7023 H         1 PCG         0.1823
     32 H9        -21.6802   26.7520   -6.9179 H         1 PCG         0.1819
     33 H10       -20.4710   23.4246   -7.0273 H         1 PCG         0.1774
     34 H11       -21.4022   24.6228   -6.0893 H         1 PCG         0.1774
     35 H12       -19.5318   23.9742   -9.0753 H         1 PCG         0.2519
@<TRIPOS>BOND
     1    1    2 ar 
     2    1    3 ar 
     3    1    4 1  
     4    1    9 1  
     5    4    5 1  
     6    5    6 1  
     7    6    7 1  
     8    6    8 1  
     9    7   12 1  
    10    8    9 1  
    11    8   10 1  
    12   10   11 1  
    13   10   12 1  
    14   12   13 1  
    15   13   14 1  
    16   13   23 1  
    17   14   15 2  
    18   15   16 1  
    19   16   17 1  
    20   16   23 2  
    21   17   18 2  
    22   17   19 am 
    23   19   20 ar 
    24   20   21 ar 
    25   20   22 ar 
    26   22   23 1  
    27    5   24 1  
    28    5   25 1  
    29    6   26 1  
    30    8   27 1  
    31   10   28 1  
    32   11   29 1  
    33   12   30 1  
    34   14   31 1  
    35   19   32 1  
    36   21   33 1  
    37   21   34 1  
    38   22   35 1  
@<TRIPOS>SUBSTRUCTURE
     1 PCG         1

