### 
### Created by X-TOOL on Sat Nov 28 16:05:51 2015
### 

@<TRIPOS>MOLECULE
4kv9_ligand
   41    43     1     0     0
SMALL
GAST_HUCK


@<TRIPOS>ATOM
      1 PB         -3.5460  -18.8740   20.7690 P.3       1 GDP         0.2069
      2 O1B        -4.5910  -19.9390   20.6760 O.co2     1 GDP        -0.5891
      3 O2B        -2.6690  -18.8510   19.5090 O.co2     1 GDP        -0.5891
      4 O3B        -4.1050  -17.4830   20.8810 O.co2     1 GDP        -0.5891
      5 O3A        -2.5940  -19.0620   22.0540 O.3       1 GDP        -0.1548
      6 PA         -2.3090  -20.3890   22.9320 P.3       1 GDP         0.3276
      7 O1A        -3.5130  -20.7250   23.7900 O.co2     1 GDP        -0.5556
      8 O2A        -1.8820  -21.5520   22.0870 O.co2     1 GDP        -0.5556
      9 O5'        -1.1680  -19.8050   23.8880 O.3       1 GDP        -0.2436
     10 C5'         0.1320  -19.5180   23.3860 C.3       1 GDP         0.1132
     11 C4'         1.1280  -19.6020   24.5420 C.3       1 GDP         0.1190
     12 O4'         0.6520  -18.7860   25.6260 O.3       1 GDP        -0.3347
     13 C3'         1.2160  -21.0210   25.0780 C.3       1 GDP         0.1151
     14 O3'         2.5670  -21.2740   25.4670 O.3       1 GDP        -0.3864
     15 C2'         0.3920  -20.9620   26.3440 C.3       1 GDP         0.1407
     16 O2'         0.8210  -21.9290   27.3040 O.3       1 GDP        -0.3835
     17 C1'         0.6460  -19.5510   26.8230 C.3       1 GDP         0.2218
     18 N9         -0.4760  -19.0750   27.6540 N.pl3     1 GDP        -0.0954
     19 C8         -1.7690  -19.4160   27.5100 C.2       1 GDP         0.1855
     20 N7         -2.5350  -18.7500   28.4320 N.2       1 GDP        -0.1929
     21 C5         -1.7190  -17.9640   29.1530 C.2       1 GDP         0.2558
     22 C6         -1.8600  -17.0190   30.2910 C.2       1 GDP         0.2628
     23 O6         -2.9640  -16.7680   30.8010 O.2       1 GDP        -0.3594
     24 N1         -0.7560  -16.4150   30.7510 N.am      1 GDP        -0.2478
     25 C2          0.4650  -16.6380   30.1880 C.cat     1 GDP         0.2041
     26 N2          1.5380  -15.9920   30.7070 N.pl3     1 GDP        -0.3327
     27 N3          0.6700  -17.5000   29.1680 N.pl3     1 GDP        -0.1901
     28 C4         -0.3620  -18.1760   28.6170 C.2       1 GDP         0.3268
     29 H           0.1483  -18.5060   22.9551 H         1 GDP         0.0648
     30 H           0.4006  -20.2509   22.6110 H         1 GDP         0.0648
     31 H           2.1180  -19.2605   24.2054 H         1 GDP         0.0651
     32 H           0.8483  -21.7695   24.3607 H         1 GDP         0.0648
     33 H           2.8224  -20.6553   26.1411 H         1 GDP         0.2100
     34 H          -0.6749  -21.1189   26.1269 H         1 GDP         0.0677
     35 H           1.7290  -21.7666   27.5314 H         1 GDP         0.2101
     36 H           1.5972  -19.4743   27.3701 H         1 GDP         0.1021
     37 H          -2.1513  -20.1177   26.7701 H         1 GDP         0.1823
     38 H          -0.8296  -15.7862   31.5251 H         1 GDP         0.1819
     39 H           2.4736  -16.1404   30.3027 H         1 GDP         0.1774
     40 H           1.4176  -15.3528   31.5057 H         1 GDP         0.1774
     41 H           1.6237  -17.6434   28.8064 H         1 GDP         0.2519
@<TRIPOS>BOND
     1    1    2 ar 
     2    1    3 ar 
     3    1    4 ar 
     4    1    5 1  
     5    5    6 1  
     6    6    7 ar 
     7    6    8 ar 
     8    6    9 1  
     9    9   10 1  
    10   10   11 1  
    11   11   12 1  
    12   11   13 1  
    13   12   17 1  
    14   13   14 1  
    15   13   15 1  
    16   15   16 1  
    17   15   17 1  
    18   17   18 1  
    19   18   19 1  
    20   18   28 1  
    21   19   20 2  
    22   20   21 1  
    23   21   22 1  
    24   21   28 2  
    25   22   23 2  
    26   22   24 am 
    27   24   25 ar 
    28   25   26 ar 
    29   25   27 ar 
    30   27   28 1  
    31   10   29 1  
    32   10   30 1  
    33   11   31 1  
    34   13   32 1  
    35   14   33 1  
    36   15   34 1  
    37   16   35 1  
    38   17   36 1  
    39   19   37 1  
    40   24   38 1  
    41   26   39 1  
    42   26   40 1  
    43   27   41 1  
@<TRIPOS>SUBSTRUCTURE
     1 GDP         1

