### 
### Created by X-TOOL on Fri Sep 26 17:35:00 2014
### 

@<TRIPOS>MOLECULE
4loj_ligand
   68    74     1     0     0
SMALL
GAST_HUCK


@<TRIPOS>ATOM
      1 C2         37.5860   25.5850   24.8240 C.ar      1 MOL         0.0533
      2 N01        40.4920   27.3070   24.2290 N.pl3     1 MOL        -0.3152
      3 C6         39.6810   26.3840   24.3210 C.ar      1 MOL         0.1298
      4 N1         38.4420   26.5770   24.7520 N.ar      1 MOL        -0.2698
      5 N3         37.9730   24.3880   24.4270 N.ar      1 MOL        -0.2714
      6 C4         39.2250   24.2260   24.0320 C.ar      1 MOL         0.1613
      7 C5         40.0590   25.1760   23.9580 C.ar      1 MOL         0.1045
      8 N7         41.1710   24.6660   23.4980 N.2       1 MOL        -0.2958
      9 C8         41.0190   23.4400   23.2650 C.2       1 MOL         0.1123
     10 N9         39.8170   23.1670   23.6090 N.pl3     1 MOL        -0.1919
     11 C1'        39.1080   22.0290   23.6550 C.3       1 MOL         0.2014
     12 C2'        38.1660   22.0110   22.6140 C.3       1 MOL         0.1439
     13 O2'        36.9660   21.3800   23.1440 O.3       1 MOL        -0.3832
     14 C3'        38.9300   21.2320   21.6530 C.3       1 MOL         0.1540
     15 C4'        39.4750   20.1040   22.5990 C.3       1 MOL         0.1242
     16 C16        40.9350   19.5430   22.2730 C.3       1 MOL         0.1128
     17 O17        41.8150   20.5420   21.9530 O.3       1 MOL        -0.2514
     18 P18        43.1130   20.4610   21.0410 P.3       1 MOL         0.2558
     19 O19        43.8330   21.5980   21.0370 O.co2     1 MOL        -0.6177
     20 O20        42.6380   20.3170   19.6720 O.3       1 MOL        -0.2424
     21 C21        41.7140   21.0970   18.9810 C.3       1 MOL         0.1796
     22 C22        40.9120   20.0590   18.2450 C.3       1 MOL         0.1205
     23 O23        41.5930   18.7310   17.8100 O.3       1 MOL        -0.3860
     24 C24        40.3250   20.7940   17.2320 C.3       1 MOL         0.1194
     25 C25        39.0430   21.0230   17.9290 C.3       1 MOL         0.1124
     26 O26        39.0590   22.0190   18.8370 O.3       1 MOL        -0.2514
     27 P27        37.6860   22.1290   19.7200 P.3       1 MOL         0.2557
     28 O28        38.0000   21.0000   20.8070 O.3       1 MOL        -0.2453
     29 O29        36.7000   21.6420   19.1190 O.co2     1 MOL        -0.6177
     30 O30        37.5820   23.2410   20.1130 O.co2     1 MOL        -0.6177
     31 O31        41.0120   21.9900   16.9570 O.3       1 MOL        -0.3344
     32 C32        42.0250   22.1830   17.7320 C.3       1 MOL         0.2273
     33 N33        41.9910   23.6940   18.0290 N.pl3     1 MOL        -0.0950
     34 C34        41.0010   24.4100   18.5220 C.2       1 MOL         0.1855
     35 N35        41.3770   25.6280   18.7240 N.2       1 MOL        -0.1929
     36 C36        42.9660   24.5320   17.9510 C.2       1 MOL         0.3268
     37 C37        42.6390   25.7100   18.3520 C.2       1 MOL         0.2558
     38 C38        43.5290   26.6480   18.3500 C.2       1 MOL         0.2628
     39 N39        44.8810   26.4410   17.9200 N.am      1 MOL        -0.2478
     40 C40        45.0980   25.1820   17.5000 C.cat     1 MOL         0.2041
     41 N41        46.2140   24.6100   17.0370 N.pl3     1 MOL        -0.3327
     42 N42        44.2030   24.3160   17.5570 N.pl3     1 MOL        -0.1901
     43 O43        43.2600   27.7210   18.7310 O.2       1 MOL        -0.3594
     44 O44        43.8990   19.2870   21.2820 O.co2     1 MOL        -0.6177
     45 O4'        39.7030   20.7700   23.6980 O.3       1 MOL        -0.3360
     46 H1         36.5826   25.7457   25.2015 H         1 MOL         0.0996
     47 H2         41.4469   27.1217   23.8902 H         1 MOL         0.1820
     48 H3         40.2151   28.2639   24.4909 H         1 MOL         0.1820
     49 H4         41.7575   22.7525   22.8552 H         1 MOL         0.1349
     50 H5         38.5472   22.1015   24.5985 H         1 MOL         0.0996
     51 H6         37.9231   23.0098   22.2224 H         1 MOL         0.0680
     52 H7         36.3007   21.3483   22.4666 H         1 MOL         0.2101
     53 H8         39.7639   21.7653   21.1732 H         1 MOL         0.0712
     54 H9         38.7467   19.2863   22.7038 H         1 MOL         0.0655
     55 H10        40.8654   18.8473   21.4238 H         1 MOL         0.0647
     56 H11        41.3136   19.0073   23.1559 H         1 MOL         0.0647
     57 H12        41.1197   21.6322   19.7362 H         1 MOL         0.0742
     58 H13        40.1100   19.7394   18.9266 H         1 MOL         0.0652
     59 H14        41.9164   18.2757   18.5785 H         1 MOL         0.2100
     60 H15        40.2068   20.2172   16.3029 H         1 MOL         0.0651
     61 H16        38.7652   20.0933   18.4471 H         1 MOL         0.0647
     62 H17        38.2813   21.2629   17.1726 H         1 MOL         0.0647
     63 H18        42.9822   21.9305   17.2525 H         1 MOL         0.1026
     64 H19        40.0031   24.0269   18.7303 H         1 MOL         0.1823
     65 H20        45.5835   27.1526   17.9311 H         1 MOL         0.1819
     66 H21        46.2060   23.6196   16.7544 H         1 MOL         0.1774
     67 H22        47.0819   25.1597   16.9629 H         1 MOL         0.1774
     68 H23        44.4509   23.3572   17.2738 H         1 MOL         0.2519
@<TRIPOS>BOND
     1    4    1 ar 
     2    1    5 ar 
     3    3    2 1  
     4    3    4 ar 
     5    3    7 ar 
     6    5    6 ar 
     7    6    7 ar 
     8    6   10 1  
     9    7    8 1  
    10    8    9 2  
    11    9   10 1  
    12   10   11 1  
    13   11   12 1  
    14   11   45 1  
    15   12   13 1  
    16   12   14 1  
    17   14   15 1  
    18   14   28 1  
    19   15   16 1  
    20   15   45 1  
    21   16   17 1  
    22   17   18 1  
    23   18   19 ar 
    24   18   20 1  
    25   18   44 ar 
    26   20   21 1  
    27   21   22 1  
    28   21   32 1  
    29   22   23 1  
    30   22   24 1  
    31   24   25 1  
    32   24   31 1  
    33   25   26 1  
    34   26   27 1  
    35   27   28 1  
    36   27   29 ar 
    37   27   30 ar 
    38   31   32 1  
    39   32   33 1  
    40   33   34 1  
    41   33   36 1  
    42   34   35 2  
    43   35   37 1  
    44   36   37 2  
    45   36   42 1  
    46   37   38 1  
    47   38   39 am 
    48   38   43 2  
    49   39   40 ar 
    50   40   41 ar 
    51   40   42 ar 
    52    1   46 1  
    53    2   47 1  
    54    2   48 1  
    55    9   49 1  
    56   11   50 1  
    57   12   51 1  
    58   13   52 1  
    59   14   53 1  
    60   15   54 1  
    61   16   55 1  
    62   16   56 1  
    63   21   57 1  
    64   22   58 1  
    65   23   59 1  
    66   24   60 1  
    67   25   61 1  
    68   25   62 1  
    69   32   63 1  
    70   34   64 1  
    71   39   65 1  
    72   41   66 1  
    73   41   67 1  
    74   42   68 1  
@<TRIPOS>SUBSTRUCTURE
     1 MOL         1

