### 
### Created by X-TOOL on Fri Sep 26 17:34:46 2014
### 

@<TRIPOS>MOLECULE
3kck_ligand
   36    40     1     0     0
SMALL
GAST_HUCK


@<TRIPOS>ATOM
      1 C4         11.3710   15.0250    0.2900 C.ar      1 MOL        -0.0480
      2 C5         11.2260   14.7080    1.6450 C.ar      1 MOL         0.0276
      3 C6         10.4130   15.5800    2.3410 C.ar      1 MOL         0.0547
      4 C8          9.7220   16.6320    1.8570 C.ar      1 MOL        -0.0086
      5 C13        15.5090   14.0860    5.8360 C.ar      1 MOL        -0.0421
      6 C15        15.3590   11.8070    5.0530 C.ar      1 MOL        -0.0291
      7 C17        13.7440   11.0000    3.4190 C.ar      1 MOL         0.0230
      8 C21        12.0640    9.8950    1.9240 C.ar      1 MOL         0.0817
      9 C24        10.8830   11.6810    1.1960 C.ar      1 MOL        -0.0167
     10 C26        12.5970   11.0690    2.5450 C.ar      1 MOL         0.0271
     11 O1          9.1560   18.0160    0.0610 O.3       1 MOL        -0.3261
     12 C2          9.8430   16.9170    0.5090 C.ar      1 MOL         0.0989
     13 C3         10.6800   16.1100   -0.2760 C.ar      1 MOL        -0.0223
     14 CL7        10.2360   15.2770    3.9660 Cl        1 MOL        -0.0639
     15 C9         12.0170   13.6250    2.3270 C.ar      1 MOL         0.0850
     16 N10        12.9060   14.0610    3.2420 N.ar      1 MOL        -0.2455
     17 C11        13.8600   13.5010    4.0940 C.ar      1 MOL         0.0836
     18 C12        14.5020   14.4540    4.9300 C.ar      1 MOL        -0.0207
     19 C14        15.9280   12.7550    5.9060 C.ar      1 MOL        -0.0425
     20 C16        14.3180   12.1570    4.1690 C.ar      1 MOL         0.0399
     21 C18        14.3160    9.7210    3.6800 C.ar      1 MOL        -0.0183
     22 C19        13.7470    8.6120    3.0240 C.ar      1 MOL         0.0159
     23 N20        12.6670    8.7330    2.2090 N.ar      1 MOL        -0.2853
     24 N22        11.0110   10.3200    1.1340 N.ar      1 MOL        -0.3313
     25 C25        11.8030   12.2030    2.0320 C.ar      1 MOL         0.0235
     26 H1         12.0256   14.4253   -0.3320 H         1 MOL         0.0669
     27 H2          9.0929   17.2340    2.5027 H         1 MOL         0.0577
     28 H3         15.9603   14.8324    6.4796 H         1 MOL         0.0715
     29 H4         15.7234   10.7862    5.0708 H         1 MOL         0.0695
     30 H5         10.1457   12.2582    0.6498 H         1 MOL         0.0623
     31 H6          9.3050   18.1229   -0.8711 H         1 MOL         0.2523
     32 H7         10.7952   16.3260   -1.3320 H         1 MOL         0.0574
     33 H8         14.2057   15.4948    4.8663 H         1 MOL         0.0714
     34 H9         16.6902   12.4600    6.6181 H         1 MOL         0.0739
     35 H10        15.1554    9.6063    4.3563 H         1 MOL         0.0733
     36 H11        14.1845    7.6316    3.1742 H         1 MOL         0.0834
@<TRIPOS>BOND
     1    2    1 ar 
     2    1   13 ar 
     3    2    3 ar 
     4   15    2 1  
     5    3    4 ar 
     6    3   14 1  
     7    4   12 ar 
     8    5   18 ar 
     9   19    5 ar 
    10    6   19 ar 
    11   20    6 ar 
    12   10    7 ar 
    13    7   20 ar 
    14    7   21 ar 
    15   10    8 ar 
    16    8   23 ar 
    17    8   24 ar 
    18    9   24 ar 
    19   25    9 ar 
    20   25   10 ar 
    21   12   11 1  
    22   13   12 ar 
    23   15   16 ar 
    24   15   25 ar 
    25   16   17 ar 
    26   17   18 ar 
    27   17   20 ar 
    28   21   22 ar 
    29   22   23 ar 
    30    1   26 1  
    31    4   27 1  
    32    5   28 1  
    33    6   29 1  
    34    9   30 1  
    35   11   31 1  
    36   13   32 1  
    37   18   33 1  
    38   19   34 1  
    39   21   35 1  
    40   22   36 1  
@<TRIPOS>SUBSTRUCTURE
     1 MOL         1

