### 
### Created by X-TOOL on Fri Sep 26 17:34:17 2014
### 

@<TRIPOS>MOLECULE
1qj6_ligand
  172   174     1     0     0
SMALL
GAST_HUCK


@<TRIPOS>ATOM
      1 N          13.8940   21.2140   71.1180 N.4       1 MOL         0.2391
      2 CA         15.1400   21.6640   70.4260 C.3       1 MOL         0.0765
      3 C          15.4490   23.1790   70.5470 C.2       1 MOL         0.2285
      4 O          16.5510   23.6780   70.5250 O.2       1 MOL        -0.3906
      5 CB         15.0380   21.2170   68.9450 C.3       1 MOL         0.0607
      6 CG         16.3880   21.0580   68.2260 C.2       1 MOL         0.0425
      7 OD1        17.4460   21.3330   68.8100 O.co2     1 MOL        -0.5686
      8 OD2        16.3760   20.6340   67.0620 O.co2     1 MOL        -0.5686
      9 N          14.3770   23.9120   70.7210 N.am      1 MOL        -0.2591
     10 CA         14.5030   25.3570   70.8350 C.3       1 MOL         0.1406
     11 C          14.8470   25.8090   72.2510 C.2       1 MOL         0.2060
     12 O          14.3150   25.3220   73.2440 O.2       1 MOL        -0.3942
     13 CB         13.1710   25.9660   70.3170 C.3       1 MOL         0.0214
     14 CG         13.0850   25.6120   68.8550 C.ar      1 MOL        -0.0386
     15 CD1        12.5860   24.3770   68.4560 C.ar      1 MOL        -0.0601
     16 CD2        13.6160   26.4750   67.9100 C.ar      1 MOL        -0.0601
     17 CE1        12.6430   23.9930   67.1240 C.ar      1 MOL        -0.0686
     18 CE2        13.6640   26.0950   66.5750 C.ar      1 MOL        -0.0686
     19 CZ         13.1870   24.8530   66.1800 C.ar      1 MOL        -0.0687
     20 N          15.7430   26.7820   72.3100 N.am      1 MOL        -0.2635
     21 CA         15.8580   27.4650   73.5810 C.3       1 MOL         0.1325
     22 C          14.5710   28.1140   74.0250 C.2       1 MOL         0.2040
     23 O          13.6800   28.5110   73.2960 O.2       1 MOL        -0.3944
     24 CB         16.9710   28.4900   73.5030 C.3       1 MOL        -0.0008
     25 CG         17.3140   29.1450   74.8260 C.3       1 MOL         0.0044
     26 CD         18.2790   30.2650   74.6130 C.2       1 MOL         0.0350
     27 OE1        19.1210   30.1740   73.7220 O.co2     1 MOL        -0.5690
     28 OE2        18.1800   31.2300   75.3490 O.co2     1 MOL        -0.5690
     29 N          14.4990   28.1260   75.3170 N.am      1 MOL        -0.2636
     30 CA         13.3450   28.5910   76.0560 C.3       1 MOL         0.1325
     31 C          13.0850   30.0690   75.8230 C.2       1 MOL         0.2040
     32 O          13.9700   30.9110   75.9190 O.2       1 MOL        -0.3944
     33 CB         13.6310   28.2980   77.5570 C.3       1 MOL        -0.0008
     34 CG         14.4270   26.9870   77.9360 C.3       1 MOL         0.0044
     35 CD         15.9820   27.0280   77.7480 C.2       1 MOL         0.0350
     36 OE1        16.6490   27.9330   78.2980 O.co2     1 MOL        -0.5690
     37 OE2        16.5220   26.1400   77.0600 O.co2     1 MOL        -0.5690
     38 N          11.8430   30.3690   75.4970 N.am      1 MOL        -0.2635
     39 CA         11.5510   31.7910   75.3530 C.3       1 MOL         0.1337
     40 C          10.9050   32.3880   76.6170 C.2       1 MOL         0.2067
     41 O          10.3280   31.6640   77.4130 O.2       1 MOL        -0.3942
     42 CB         10.7150   32.0020   74.0590 C.3       1 MOL        -0.0037
     43 CG1         9.2880   31.4900   74.1880 C.3       1 MOL        -0.0491
     44 CG2        11.4460   31.4020   72.8430 C.3       1 MOL        -0.0582
     45 CD1         8.4110   31.7350   72.9730 C.3       1 MOL        -0.0648
     46 N          11.0210   33.7080   76.8330 N.am      1 MOL        -0.2498
     47 CA         10.2230   34.3570   77.8970 C.3       1 MOL         0.1338
     48 C           8.7150   34.0750   77.9830 C.2       1 MOL         0.2041
     49 O           7.9240   34.1780   77.0560 O.2       1 MOL        -0.3944
     50 CB         10.5150   35.8530   77.6740 C.3       1 MOL        -0.0104
     51 CG         11.9160   35.8860   77.0670 C.3       1 MOL        -0.0281
     52 CD         11.9210   34.6520   76.1700 C.3       1 MOL         0.0369
     53 N           8.3220   33.7570   79.2120 N.am      1 MOL        -0.2636
     54 CA          6.9070   33.4310   79.4230 C.3       1 MOL         0.1325
     55 C           5.8670   34.5300   79.2120 C.2       1 MOL         0.2040
     56 O           4.6850   34.2940   79.1000 O.2       1 MOL        -0.3944
     57 CB          6.6900   32.7470   80.7950 C.3       1 MOL        -0.0008
     58 CG          6.7610   33.6480   82.0570 C.3       1 MOL         0.0044
     59 CD          6.2950   32.9460   83.3550 C.2       1 MOL         0.0350
     60 OE1         7.0610   32.1190   83.8820 O.co2     1 MOL        -0.5690
     61 OE2         5.1840   33.2450   83.8450 O.co2     1 MOL        -0.5690
     62 N           6.3150   35.7690   79.0920 N.am      1 MOL        -0.2636
     63 CA          5.2700   36.6730   78.5940 C.3       1 MOL         0.1325
     64 C           4.8500   36.5010   77.1170 C.2       1 MOL         0.2041
     65 O           3.9510   37.1610   76.6300 O.2       1 MOL        -0.3944
     66 CB          5.5960   38.1510   78.9280 C.3       1 MOL        -0.0008
     67 CG          6.7030   38.9090   78.1540 C.3       1 MOL         0.0044
     68 CD          8.1270   38.6110   78.6230 C.2       1 MOL         0.0350
     69 OE1         8.3050   37.9210   79.6410 O.co2     1 MOL        -0.5690
     70 OE2         9.0620   39.0930   77.9600 O.co2     1 MOL        -0.5690
     71 N           5.5460   35.5960   76.3930 N.am      1 MOL        -0.2621
     72 CA          5.1510   35.3150   74.9940 C.3       1 MOL         0.1390
     73 CB          6.3870   35.0300   74.1220 C.3       1 MOL         0.0163
     74 CG          7.2680   36.2490   74.0590 C.ar      1 MOL        -0.0493
     75 CD1         6.7390   37.4850   73.7110 C.ar      1 MOL        -0.0684
     76 CD2         8.6030   36.1260   74.3960 C.ar      1 MOL        -0.0684
     77 CE1         7.5580   38.6040   73.7110 C.ar      1 MOL        -0.0370
     78 CE2         9.4260   37.2440   74.3910 C.ar      1 MOL        -0.0370
     79 CZ          8.9060   38.4860   74.0470 C.ar      1 MOL         0.1183
     80 OH          9.7760   39.6630   74.0260 O.3       1 MOL        -0.1520
     81 S          10.7070   40.0410   72.8600 S.o2      1 MOL         0.2255
     82 O1         11.5240   38.8360   72.4710 O.3       1 MOL        -0.2280
     83 O2         11.6000   41.1910   73.2220 O.2       1 MOL        -0.1141
     84 O3          9.8460   40.4510   71.7010 O.2       1 MOL        -0.1141
     85 C           4.1590   34.1860   74.7380 C.2       1 MOL         0.2052
     86 O           3.8100   33.9070   73.6010 O.2       1 MOL        -0.3943
     87 N           3.7540   33.5510   75.8310 N.am      1 MOL        -0.2693
     88 CA          2.7940   32.4440   75.8130 C.3       1 MOL         0.0946
     89 C           1.3770   32.8100   76.3640 C.2       1 MOL         0.0601
     90 O           0.3880   32.2510   75.8690 O.co2     1 MOL        -0.5666
     91 CB          3.4410   31.2940   76.6010 C.3       1 MOL        -0.0156
     92 CG          4.8540   30.9860   76.1070 C.3       1 MOL        -0.0431
     93 CD1         5.6320   30.1810   77.1390 C.3       1 MOL        -0.0625
     94 CD2         4.8230   30.2730   74.7590 C.3       1 MOL        -0.0625
     95 OXT         1.2350   33.6620   77.2670 O.co2     1 MOL        -0.5666
     96 H1         13.7758   20.2217   70.9856 H         1 MOL         0.2016
     97 H2         13.1005   21.7013   70.7320 H         1 MOL         0.2016
     98 H3         13.9653   21.4154   72.1031 H         1 MOL         0.2016
     99 H4         15.9848   21.1317   70.8875 H         1 MOL         0.1117
    100 H5         14.4466   21.9679   68.4007 H         1 MOL         0.0512
    101 H6         14.5179   20.2482   68.9148 H         1 MOL         0.0512
    102 H7         13.4766   23.4804   70.7752 H         1 MOL         0.1886
    103 H8         15.3189   25.6899   70.1766 H         1 MOL         0.0823
    104 H9         13.1765   27.0585   70.4447 H         1 MOL         0.0474
    105 H10        12.3181   25.5372   70.8635 H         1 MOL         0.0474
    106 H11        12.1496   23.7098   69.1905 H         1 MOL         0.0557
    107 H12        13.9934   27.4452   68.2122 H         1 MOL         0.0557
    108 H13        12.2636   23.0237   66.8213 H         1 MOL         0.0599
    109 H14        14.0767   26.7730   65.8367 H         1 MOL         0.0599
    110 H15        13.2390   24.5558   65.1388 H         1 MOL         0.0559
    111 H16        16.3072   27.0305   71.5226 H         1 MOL         0.1883
    112 H17        16.1307   26.7170   74.3400 H         1 MOL         0.0801
    113 H18        16.6646   29.2775   72.7987 H         1 MOL         0.0330
    114 H19        17.8737   27.9892   73.1231 H         1 MOL         0.0330
    115 H20        17.7665   28.3979   75.4947 H         1 MOL         0.0433
    116 H21        16.3954   29.5394   75.2850 H         1 MOL         0.0433
    117 H22        15.2873   27.7944   75.8353 H         1 MOL         0.1883
    118 H23        12.4563   28.0273   75.7360 H         1 MOL         0.0801
    119 H24        12.6581   28.2450   78.0676 H         1 MOL         0.0330
    120 H25        14.2052   29.1502   77.9495 H         1 MOL         0.0330
    121 H26        14.0375   26.1687   77.3125 H         1 MOL         0.0433
    122 H27        14.2251   26.7691   78.9951 H         1 MOL         0.0433
    123 H28        11.1454   29.6662   75.3573 H         1 MOL         0.1883
    124 H29        12.5083   32.3143   75.2125 H         1 MOL         0.0803
    125 H30        10.6467   33.0872   73.8927 H         1 MOL         0.0345
    126 H31         8.8227   31.9876   75.0517 H         1 MOL         0.0267
    127 H32         9.3285   30.4055   74.3676 H         1 MOL         0.0267
    128 H33        12.4692   31.8030   72.7958 H         1 MOL         0.0235
    129 H34        10.9054   31.6673   71.9225 H         1 MOL         0.0235
    130 H35        11.4855   30.3072   72.9424 H         1 MOL         0.0235
    131 H36         7.4046   31.3323   73.1601 H         1 MOL         0.0230
    132 H37         8.8494   31.2340   72.0973 H         1 MOL         0.0230
    133 H38         8.3436   32.8161   72.7814 H         1 MOL         0.0230
    134 H39        10.6436   34.0471   78.8650 H         1 MOL         0.0802
    135 H40        10.4924   36.3995   78.6283 H         1 MOL         0.0313
    136 H41         9.7817   36.2928   76.9821 H         1 MOL         0.0313
    137 H42        12.6882   35.8127   77.8469 H         1 MOL         0.0287
    138 H43        12.0729   36.8034   76.4807 H         1 MOL         0.0287
    139 H44        11.5499   34.9014   75.1650 H         1 MOL         0.0524
    140 H45        12.9349   34.2326   76.0928 H         1 MOL         0.0524
    141 H46         8.9722   33.7404   79.9715 H         1 MOL         0.1883
    142 H47         6.6775   32.6735   78.6591 H         1 MOL         0.0801
    143 H48         7.4590   31.9677   80.9014 H         1 MOL         0.0330
    144 H49         5.6943   32.2798   80.7779 H         1 MOL         0.0330
    145 H50         6.1224   34.5281   81.8907 H         1 MOL         0.0433
    146 H51         7.8034   33.9718   82.1934 H         1 MOL         0.0433
    147 H52         7.2478   36.0542   79.3126 H         1 MOL         0.1883
    148 H53         4.3719   36.4205   79.1768 H         1 MOL         0.0801
    149 H54         5.8801   38.1782   79.9903 H         1 MOL         0.0330
    150 H55         4.6653   38.7190   78.7826 H         1 MOL         0.0330
    151 H56         6.5234   39.9882   78.2678 H         1 MOL         0.0433
    152 H57         6.6276   38.6348   77.0914 H         1 MOL         0.0433
    153 H58         6.3243   35.1184   76.8006 H         1 MOL         0.1885
    154 H59         4.6786   36.2372   74.6249 H         1 MOL         0.0821
    155 H60         6.0616   34.7635   73.1056 H         1 MOL         0.0453
    156 H61         6.9539   34.1936   74.5567 H         1 MOL         0.0453
    157 H62         5.6929   37.5744   73.4412 H         1 MOL         0.0530
    158 H63         9.0072   35.1566   74.6642 H         1 MOL         0.0530
    159 H64         7.1491   39.5731   73.4491 H         1 MOL         0.0526
    160 H65        10.4730   37.1483   74.6551 H         1 MOL         0.0526
    161 H66        12.1009   39.0635   71.7513 H         1 MOL         0.2473
    162 H67         4.1234   33.8434   76.7131 H         1 MOL         0.1875
    163 H68         2.6611   32.1229   74.7693 H         1 MOL         0.0726
    164 H69         2.8208   30.3926   76.4877 H         1 MOL         0.0308
    165 H70         3.4895   31.5746   77.6635 H         1 MOL         0.0308
    166 H71         5.3761   31.9440   75.9667 H         1 MOL         0.0297
    167 H72         6.6427   29.9746   76.7570 H         1 MOL         0.0232
    168 H73         5.1117   29.2311   77.3313 H         1 MOL         0.0232
    169 H74         5.7038   30.7557   78.0742 H         1 MOL         0.0232
    170 H75         4.2552   30.8783   74.0370 H         1 MOL         0.0232
    171 H76         4.3401   29.2914   74.8744 H         1 MOL         0.0232
    172 H77         5.8512   30.1352   74.3933 H         1 MOL         0.0232
@<TRIPOS>BOND
     1    1    2 1  
     2    2    3 1  
     3    2    5 1  
     4    3    4 2  
     5    3    9 am 
     6    5    6 1  
     7    6    7 ar 
     8    6    8 ar 
     9    9   10 1  
    10   10   11 1  
    11   10   13 1  
    12   11   12 2  
    13   11   20 am 
    14   13   14 1  
    15   14   15 ar 
    16   14   16 ar 
    17   15   17 ar 
    18   16   18 ar 
    19   17   19 ar 
    20   18   19 ar 
    21   20   21 1  
    22   21   22 1  
    23   21   24 1  
    24   22   23 2  
    25   22   29 am 
    26   24   25 1  
    27   25   26 1  
    28   26   27 ar 
    29   26   28 ar 
    30   29   30 1  
    31   30   31 1  
    32   30   33 1  
    33   31   32 2  
    34   31   38 am 
    35   33   34 1  
    36   34   35 1  
    37   35   36 ar 
    38   35   37 ar 
    39   38   39 1  
    40   39   40 1  
    41   39   42 1  
    42   40   41 2  
    43   40   46 am 
    44   42   43 1  
    45   42   44 1  
    46   43   45 1  
    47   46   47 1  
    48   46   52 1  
    49   47   48 1  
    50   47   50 1  
    51   48   49 2  
    52   48   53 am 
    53   50   51 1  
    54   51   52 1  
    55   53   54 1  
    56   54   55 1  
    57   54   57 1  
    58   55   56 2  
    59   55   62 am 
    60   57   58 1  
    61   58   59 1  
    62   59   60 ar 
    63   59   61 ar 
    64   62   63 1  
    65   63   64 1  
    66   63   66 1  
    67   64   65 2  
    68   64   71 am 
    69   66   67 1  
    70   67   68 1  
    71   68   69 ar 
    72   68   70 ar 
    73   71   72 1  
    74   72   73 1  
    75   72   85 1  
    76   73   74 1  
    77   74   75 ar 
    78   74   76 ar 
    79   75   77 ar 
    80   76   78 ar 
    81   77   79 ar 
    82   78   79 ar 
    83   79   80 1  
    84   80   81 1  
    85   81   82 1  
    86   81   83 2  
    87   81   84 2  
    88   85   86 2  
    89   85   87 am 
    90   87   88 1  
    91   88   89 1  
    92   88   91 1  
    93   89   90 ar 
    94   89   95 ar 
    95   91   92 1  
    96   92   93 1  
    97   92   94 1  
    98    1   96 1  
    99    1   97 1  
   100    1   98 1  
   101    2   99 1  
   102    5  100 1  
   103    5  101 1  
   104    9  102 1  
   105   10  103 1  
   106   13  104 1  
   107   13  105 1  
   108   15  106 1  
   109   16  107 1  
   110   17  108 1  
   111   18  109 1  
   112   19  110 1  
   113   20  111 1  
   114   21  112 1  
   115   24  113 1  
   116   24  114 1  
   117   25  115 1  
   118   25  116 1  
   119   29  117 1  
   120   30  118 1  
   121   33  119 1  
   122   33  120 1  
   123   34  121 1  
   124   34  122 1  
   125   38  123 1  
   126   39  124 1  
   127   42  125 1  
   128   43  126 1  
   129   43  127 1  
   130   44  128 1  
   131   44  129 1  
   132   44  130 1  
   133   45  131 1  
   134   45  132 1  
   135   45  133 1  
   136   47  134 1  
   137   50  135 1  
   138   50  136 1  
   139   51  137 1  
   140   51  138 1  
   141   52  139 1  
   142   52  140 1  
   143   53  141 1  
   144   54  142 1  
   145   57  143 1  
   146   57  144 1  
   147   58  145 1  
   148   58  146 1  
   149   62  147 1  
   150   63  148 1  
   151   66  149 1  
   152   66  150 1  
   153   67  151 1  
   154   67  152 1  
   155   71  153 1  
   156   72  154 1  
   157   73  155 1  
   158   73  156 1  
   159   75  157 1  
   160   76  158 1  
   161   77  159 1  
   162   78  160 1  
   163   82  161 1  
   164   87  162 1  
   165   88  163 1  
   166   91  164 1  
   167   91  165 1  
   168   92  166 1  
   169   93  167 1  
   170   93  168 1  
   171   93  169 1  
   172   94  170 1  
   173   94  171 1  
   174   94  172 1  
@<TRIPOS>SUBSTRUCTURE
     1 MOL         1

