### 
### Created by X-TOOL on Fri Sep 26 17:34:55 2014
### 

@<TRIPOS>MOLECULE
4dt6_ligand
   55    58     1     0     0
SMALL
GAST_HUCK


@<TRIPOS>ATOM
      1 C1          2.2320   -0.7330  -24.5820 C.3       1 MOL         0.1656
      2 N1          1.2540    0.4130  -24.4980 N.2       1 MOL        -0.1577
      3 O1          3.4820   -0.3840  -23.8860 O.3       1 MOL        -0.3530
      4 P1          5.8690    3.0290  -23.9540 P.3       1 MOL         0.2008
      5 CL1         0.3330    4.9030  -15.9230 Cl        1 MOL        -0.0810
      6 C2          4.5690   -0.5290  -24.8490 C.3       1 MOL         0.1161
      7 N2          0.4000    2.3720  -24.1940 N.pl3     1 MOL        -0.0490
      8 O2          2.9990   -2.3210  -26.2690 O.3       1 MOL        -0.3857
      9 C3          3.8680   -0.0840  -26.1390 C.3       1 MOL         0.1128
     10 N3         -2.7320    0.6820  -25.2930 N.am      1 MOL        -0.2152
     11 O3          4.6720   -0.4400  -27.2750 O.3       1 MOL        -0.3865
     12 C4          2.6350   -0.9440  -26.0500 C.3       1 MOL         0.1208
     13 N4         -0.7640   -0.7370  -25.2120 N.pl3     1 MOL        -0.1473
     14 O4          5.0630    1.6550  -24.2670 O.3       1 MOL        -0.2734
     15 C5          5.6830    0.4210  -24.4600 C.3       1 MOL         0.1071
     16 N5         -2.8170   -1.6110  -25.8790 N.pl3     1 MOL        -0.3251
     17 O5         -2.4360    2.8840  -24.6910 O.2       1 MOL        -0.2762
     18 C6         -0.5780    1.5780  -24.6330 C.2       1 MOL         0.4526
     19 O6          0.9740    4.0330  -21.6670 O.3       1 MOL        -0.3145
     20 C7         -0.0280    0.3150  -24.8060 C.2       1 MOL         0.4104
     21 O7          7.2220    2.9360  -24.6220 O.co2     1 MOL        -0.5537
     22 C8          1.5280    1.6750  -24.1350 C.2       1 MOL         0.2323
     23 O8          5.7970    3.2090  -22.3350 O.co2     1 MOL        -0.5537
     24 C9         -2.0930   -0.5700  -25.4620 C.cat     1 MOL         0.2333
     25 O9          4.8800    4.2290  -24.4810 O.co2     1 MOL        -0.5537
     26 C10        -1.9410    1.7690  -24.8670 C.2       1 MOL         0.4098
     27 C11         0.3070    3.8310  -23.9170 C.3       1 MOL         0.1378
     28 C12        -0.1710    4.1700  -22.5240 C.3       1 MOL         0.1048
     29 C13         0.7480    4.2660  -20.3320 C.ar      1 MOL         0.0917
     30 C14        -0.4530    4.7860  -19.8360 C.ar      1 MOL        -0.0324
     31 C15        -0.6000    4.9830  -18.4720 C.ar      1 MOL        -0.0567
     32 C16         0.4510    4.6490  -17.6230 C.ar      1 MOL         0.0285
     33 C17         1.6370    4.1590  -18.1040 C.ar      1 MOL        -0.0567
     34 C18         1.7800    3.9610  -19.4510 C.ar      1 MOL        -0.0324
     35 H           1.7583   -1.6122  -24.1452 H         1 MOL         0.0758
     36 H           5.0225   -1.5174  -24.9227 H         1 MOL         0.0650
     37 H           3.2489   -2.4425  -27.1879 H         1 MOL         0.2100
     38 H           3.6774    0.9841  -26.2442 H         1 MOL         0.0647
     39 H          -3.7297    0.7939  -25.4731 H         1 MOL         0.1858
     40 H           4.7964   -1.3918  -27.2920 H         1 MOL         0.2100
     41 H           1.8522   -0.7049  -26.7699 H         1 MOL         0.0655
     42 H          -0.3298   -1.6522  -25.3315 H         1 MOL         0.2869
     43 H           6.4522    0.4744  -25.2304 H         1 MOL         0.0639
     44 H           6.2000    0.0865  -23.5606 H         1 MOL         0.0639
     45 H          -3.8124   -1.4962  -26.0698 H         1 MOL         0.1812
     46 H          -2.3749   -2.5213  -26.0068 H         1 MOL         0.1812
     47 H           2.5050    2.0602  -23.8430 H         1 MOL         0.2243
     48 H          -0.4207    4.2444  -24.6154 H         1 MOL         0.0721
     49 H           1.3113    4.2419  -24.0204 H         1 MOL         0.0721
     50 H          -0.5768    5.1807  -22.4814 H         1 MOL         0.0647
     51 H          -0.9786    3.5077  -22.2121 H         1 MOL         0.0647
     52 H          -1.2667    5.0342  -20.5174 H         1 MOL         0.0543
     53 H          -1.5260    5.3939  -18.0697 H         1 MOL         0.0595
     54 H           2.4563    3.9298  -17.4225 H         1 MOL         0.0595
     55 H           2.7159    3.5586  -19.8385 H         1 MOL         0.0543
@<TRIPOS>BOND
     1    2    1 1  
     2    1    3 1  
     3    1   12 1  
     4    2   20 1  
     5   22    2 2  
     6    3    6 1  
     7   14    4 1  
     8    4   21 ar 
     9    4   23 ar 
    10    4   25 ar 
    11   32    5 1  
    12    9    6 1  
    13    6   15 1  
    14    7   18 1  
    15    7   22 1  
    16   27    7 1  
    17   12    8 1  
    18    9   11 1  
    19   12    9 1  
    20   10   24 ar 
    21   26   10 am 
    22   20   13 1  
    23   13   24 ar 
    24   15   14 1  
    25   24   16 ar 
    26   26   17 2  
    27   18   20 2  
    28   18   26 1  
    29   19   28 1  
    30   29   19 1  
    31   28   27 1  
    32   30   29 ar 
    33   29   34 ar 
    34   31   30 ar 
    35   31   32 ar 
    36   32   33 ar 
    37   33   34 ar 
    38    1   35 1  
    39    6   36 1  
    40    8   37 1  
    41    9   38 1  
    42   10   39 1  
    43   11   40 1  
    44   12   41 1  
    45   13   42 1  
    46   15   43 1  
    47   15   44 1  
    48   16   45 1  
    49   16   46 1  
    50   22   47 1  
    51   27   48 1  
    52   27   49 1  
    53   28   50 1  
    54   28   51 1  
    55   30   52 1  
    56   31   53 1  
    57   33   54 1  
    58   34   55 1  
@<TRIPOS>SUBSTRUCTURE
     1 MOL         1

