### 
### Created by X-TOOL on Fri Sep 26 17:34:18 2014
### 

@<TRIPOS>MOLECULE
1kdz_ligand
   79    80     1     0     0
SMALL
GAST_HUCK


@<TRIPOS>ATOM
      1 CA         23.6390   12.0570    4.2990 C.3       1 MOL         0.0397
      2 CB         23.2730   13.4560    3.7390 C.3       1 MOL        -0.0298
      3 CG1        23.9850   14.5300    4.5320 C.3       1 MOL        -0.0606
      4 CG2        23.6340   13.5220    2.2710 C.3       1 MOL        -0.0606
      5 C          23.0340   11.9770    5.6960 C.2       1 MOL         0.1786
      6 O          21.8320   12.1500    5.8460 O.2       1 MOL        -0.3969
      7 N          23.8960   11.7270    6.6720 N.am      1 MOL        -0.2640
      8 CA         23.5020   11.5940    8.0700 C.3       1 MOL         0.1389
      9 C          24.1020   12.6880    8.9280 C.2       1 MOL         0.2057
     10 O          25.2070   13.1690    8.7290 O.2       1 MOL        -0.3942
     11 CB         23.9500   10.2050    8.5560 C.3       1 MOL         0.0163
     12 CG         23.2500    9.1290    7.7440 C.ar      1 MOL        -0.0493
     13 CD1        23.9610    8.4400    6.7790 C.ar      1 MOL        -0.0685
     14 CD2        21.9110    8.8330    7.9450 C.ar      1 MOL        -0.0685
     15 CE1        23.3760    7.4550    6.0070 C.ar      1 MOL        -0.0398
     16 CE2        21.3090    7.8470    7.1820 C.ar      1 MOL        -0.0398
     17 CZ         22.0380    7.1710    6.2250 C.ar      1 MOL         0.0805
     18 OH         21.3980    6.1940    5.4890 O.3       1 MOL        -0.3376
     19 N          23.3420   13.1300    9.9510 N.am      1 MOL        -0.2636
     20 CA         23.8890   14.0880   10.9210 C.3       1 MOL         0.1311
     21 C          24.6410   13.3100   11.9820 C.2       1 MOL         0.2021
     22 O          24.1440   12.3730   12.5900 O.2       1 MOL        -0.3945
     23 CB         22.7430   14.9200   11.4980 C.3       1 MOL        -0.0101
     24 CG         21.7520   15.5170   10.4820 C.3       1 MOL        -0.0425
     25 CD1        20.6680   16.2730   11.2120 C.3       1 MOL        -0.0625
     26 CD2        22.4780   16.3970    9.4770 C.3       1 MOL        -0.0625
     27 N          25.8690   13.7550   12.1980 N.am      1 MOL        -0.2780
     28 CA         26.7460   13.0860   13.1660 C.3       1 MOL         0.0731
     29 C          26.7410   13.8080   14.5110 C.3       1 MOL         0.0687
     30 O          27.5950   13.1820   15.4940 O.3       1 MOL        -0.3926
     31 CB         28.1250   13.0080   12.5430 C.3       1 MOL         0.0010
     32 CG         28.2940   12.0170   11.4080 C.ar      1 MOL        -0.0515
     33 CD1        29.2790   12.2710   10.4560 C.ar      1 MOL        -0.0687
     34 CD2        27.5310   10.8670   11.2700 C.ar      1 MOL        -0.0687
     35 CE1        29.4830   11.4000    9.3890 C.ar      1 MOL        -0.0398
     36 CE2        27.7210    9.9730   10.2250 C.ar      1 MOL        -0.0398
     37 CZ         28.7050   10.2430    9.2890 C.ar      1 MOL         0.0805
     38 OH         28.8930    9.3600    8.2400 O.3       1 MOL        -0.3376
     39 H1         24.7318   11.9428    4.3513 H         1 MOL         0.0505
     40 H2         23.2182   11.2690    3.6572 H         1 MOL         0.0505
     41 H3         22.1883   13.6080    3.8406 H         1 MOL         0.0320
     42 H4         23.7208   15.5190    4.1294 H         1 MOL         0.0234
     43 H5         25.0723   14.3818    4.4561 H         1 MOL         0.0234
     44 H6         23.6795   14.4701    5.5870 H         1 MOL         0.0234
     45 H7         23.1001   12.7294    1.7262 H         1 MOL         0.0234
     46 H8         24.7186   13.3811    2.1534 H         1 MOL         0.0234
     47 H9         23.3457   14.5033    1.8662 H         1 MOL         0.0234
     48 H10        24.8629   11.6247    6.4383 H         1 MOL         0.1884
     49 H11        22.4064   11.6626    8.1395 H         1 MOL         0.0821
     50 H12        23.6907   10.0881    9.6186 H         1 MOL         0.0453
     51 H13        25.0385   10.1073    8.4312 H         1 MOL         0.0453
     52 H14        25.0068    8.6794    6.6238 H         1 MOL         0.0530
     53 H15        21.3395    9.3694    8.6938 H         1 MOL         0.0530
     54 H16        23.9458    6.9215    5.2548 H         1 MOL         0.0525
     55 H17        20.2636    7.6057    7.3366 H         1 MOL         0.0525
     56 H18        22.0098    5.8113    4.8711 H         1 MOL         0.2458
     57 H19        22.4018   12.8040   10.0495 H         1 MOL         0.1883
     58 H20        24.5924   14.7642   10.4132 H         1 MOL         0.0800
     59 H21        23.1858   15.7534   12.0630 H         1 MOL         0.0315
     60 H22        22.1726   14.2750   12.1825 H         1 MOL         0.0315
     61 H23        21.2808   14.6902    9.9303 H         1 MOL         0.0298
     62 H24        19.9624   16.6977   10.4827 H         1 MOL         0.0232
     63 H25        21.1199   17.0849   11.8006 H         1 MOL         0.0232
     64 H26        20.1318   15.5872   11.8844 H         1 MOL         0.0232
     65 H27        23.2566   15.8086    8.9696 H         1 MOL         0.0232
     66 H28        22.9426   17.2454   10.0008 H         1 MOL         0.0232
     67 H29        21.7601   16.7736    8.7335 H         1 MOL         0.0232
     68 H30        26.2019   14.5540   11.6972 H         1 MOL         0.1857
     69 H31        26.3782   12.0628   13.3325 H         1 MOL         0.0599
     70 H32        25.7115   13.8194   14.8983 H         1 MOL         0.0582
     71 H33        27.0856   14.8409   14.3551 H         1 MOL         0.0582
     72 H34        27.5530   13.6711   16.3074 H         1 MOL         0.2095
     73 H35        28.8361   12.7337   13.3361 H         1 MOL         0.0428
     74 H36        28.3749   14.0068   12.1558 H         1 MOL         0.0428
     75 H37        29.8947   13.1585   10.5472 H         1 MOL         0.0530
     76 H38        26.7600   10.6592   12.0031 H         1 MOL         0.0530
     77 H39        30.2384   11.6172    8.6425 H         1 MOL         0.0525
     78 H40        27.1108    9.0808   10.1434 H         1 MOL         0.0525
     79 H41        29.5962    9.6741    7.6839 H         1 MOL         0.2458
@<TRIPOS>BOND
     1    1    2 1  
     2    1    5 1  
     3    2    3 1  
     4    2    4 1  
     5    5    6 2  
     6    5    7 am 
     7    7    8 1  
     8    8    9 1  
     9    8   11 1  
    10    9   10 2  
    11    9   19 am 
    12   11   12 1  
    13   12   13 ar 
    14   12   14 ar 
    15   13   15 ar 
    16   14   16 ar 
    17   15   17 ar 
    18   16   17 ar 
    19   17   18 1  
    20   19   20 1  
    21   20   21 1  
    22   20   23 1  
    23   21   22 2  
    24   21   27 am 
    25   23   24 1  
    26   24   25 1  
    27   24   26 1  
    28   27   28 1  
    29   28   29 1  
    30   28   31 1  
    31   29   30 1  
    32   31   32 1  
    33   32   33 ar 
    34   32   34 ar 
    35   33   35 ar 
    36   34   36 ar 
    37   35   37 ar 
    38   36   37 ar 
    39   37   38 1  
    40    1   39 1  
    41    1   40 1  
    42    2   41 1  
    43    3   42 1  
    44    3   43 1  
    45    3   44 1  
    46    4   45 1  
    47    4   46 1  
    48    4   47 1  
    49    7   48 1  
    50    8   49 1  
    51   11   50 1  
    52   11   51 1  
    53   13   52 1  
    54   14   53 1  
    55   15   54 1  
    56   16   55 1  
    57   18   56 1  
    58   19   57 1  
    59   20   58 1  
    60   23   59 1  
    61   23   60 1  
    62   24   61 1  
    63   25   62 1  
    64   25   63 1  
    65   25   64 1  
    66   26   65 1  
    67   26   66 1  
    68   26   67 1  
    69   27   68 1  
    70   28   69 1  
    71   29   70 1  
    72   29   71 1  
    73   30   72 1  
    74   31   73 1  
    75   31   74 1  
    76   33   75 1  
    77   34   76 1  
    78   35   77 1  
    79   36   78 1  
    80   38   79 1  
@<TRIPOS>SUBSTRUCTURE
     1 MOL         1

