### 
### Created by X-TOOL on Fri Sep 26 17:34:21 2014
### 

@<TRIPOS>MOLECULE
1la3_ligand
   43    42     1     0     0
SMALL
GAST_HUCK


@<TRIPOS>ATOM
      1 C1        -20.5800   12.9020   -2.0150 C.2       1 MYR         0.0991
      2 O2        -21.3350   11.9680   -1.8310 O.2       1 MYR        -0.3749
      3 C2        -19.1870   12.9180   -1.3850 C.3       1 MYR         0.0189
      4 C3        -18.8240   11.5030   -0.9310 C.3       1 MYR        -0.0373
      5 C4        -17.3030   11.3630   -0.8960 C.3       1 MYR        -0.0509
      6 C5        -16.9430    9.9090   -0.5870 C.3       1 MYR        -0.0529
      7 C6        -17.2750    9.6140    0.8770 C.3       1 MYR        -0.0531
      8 C7        -16.3370    8.5250    1.3990 C.3       1 MYR        -0.0531
      9 C8        -15.2500    9.1710    2.2580 C.3       1 MYR        -0.0531
     10 C9        -14.3410    8.0770    2.8280 C.3       1 MYR        -0.0531
     11 C10       -14.5210    8.0120    4.3460 C.3       1 MYR        -0.0531
     12 C11       -13.4230    7.1310    4.9360 C.3       1 MYR        -0.0531
     13 C12       -13.5580    7.1030    6.4570 C.3       1 MYR        -0.0533
     14 C13       -12.6250    6.0290    7.0190 C.3       1 MYR        -0.0559
     15 C14       -12.7260    6.0230    8.5420 C.3       1 MYR        -0.0653
     16 H1        -20.8993   13.7377   -2.6360 H         1 MYR         0.1348
     17 H2        -19.1831   13.5949   -0.5179 H         1 MYR         0.0493
     18 H3        -18.4522   13.2666   -2.1256 H         1 MYR         0.0493
     19 H4        -19.2450   10.7708   -1.6358 H         1 MYR         0.0290
     20 H5        -19.2335   11.3222    0.0738 H         1 MYR         0.0290
     21 H6        -16.8903   12.0188   -0.1153 H         1 MYR         0.0267
     22 H7        -16.8841   11.6469   -1.8727 H         1 MYR         0.0267
     23 H8        -15.8685    9.7502   -0.7607 H         1 MYR         0.0265
     24 H9        -17.5228    9.2390   -1.2388 H         1 MYR         0.0265
     25 H10       -18.3168    9.2699    0.9553 H         1 MYR         0.0265
     26 H11       -17.1449   10.5283    1.4746 H         1 MYR         0.0265
     27 H12       -15.8730    8.0007    0.5506 H         1 MYR         0.0265
     28 H13       -16.9079    7.8069    2.0060 H         1 MYR         0.0265
     29 H14       -15.7165    9.7286    3.0835 H         1 MYR         0.0265
     30 H15       -14.6542    9.8596    1.6408 H         1 MYR         0.0265
     31 H16       -13.2923    8.3102    2.5918 H         1 MYR         0.0265
     32 H17       -14.6099    7.1072    2.3840 H         1 MYR         0.0265
     33 H18       -15.5059    7.5833    4.5832 H         1 MYR         0.0265
     34 H19       -14.4500    9.0245    4.7701 H         1 MYR         0.0265
     35 H20       -12.4386    7.5386    4.6624 H         1 MYR         0.0265
     36 H21       -13.5198    6.1093    4.5401 H         1 MYR         0.0265
     37 H22       -14.5973    6.8690    6.7310 H         1 MYR         0.0265
     38 H23       -13.2820    8.0844    6.8701 H         1 MYR         0.0265
     39 H24       -11.5894    6.2482    6.7199 H         1 MYR         0.0263
     40 H25       -12.9193    5.0443    6.6270 H         1 MYR         0.0263
     41 H26       -12.0565    5.2519    8.9508 H         1 MYR         0.0230
     42 H27       -13.7621    5.8044    8.8399 H         1 MYR         0.0230
     43 H28       -12.4322    7.0083    8.9329 H         1 MYR         0.0230
@<TRIPOS>BOND
     1    1    2 2  
     2    1    3 1  
     3    3    4 1  
     4    4    5 1  
     5    5    6 1  
     6    6    7 1  
     7    7    8 1  
     8    8    9 1  
     9    9   10 1  
    10   10   11 1  
    11   11   12 1  
    12   12   13 1  
    13   13   14 1  
    14   14   15 1  
    15    1   16 1  
    16    3   17 1  
    17    3   18 1  
    18    4   19 1  
    19    4   20 1  
    20    5   21 1  
    21    5   22 1  
    22    6   23 1  
    23    6   24 1  
    24    7   25 1  
    25    7   26 1  
    26    8   27 1  
    27    8   28 1  
    28    9   29 1  
    29    9   30 1  
    30   10   31 1  
    31   10   32 1  
    32   11   33 1  
    33   11   34 1  
    34   12   35 1  
    35   12   36 1  
    36   13   37 1  
    37   13   38 1  
    38   14   39 1  
    39   14   40 1  
    40   15   41 1  
    41   15   42 1  
    42   15   43 1  
@<TRIPOS>SUBSTRUCTURE
     1 MYR         1

