### 
### Created by X-TOOL on Fri Sep 26 17:34:16 2014
### 

@<TRIPOS>MOLECULE
1qtn_ligand
   16    16     1     0     0
SMALL
GAST_HUCK


@<TRIPOS>ATOM
      1 S1         -9.9100   26.8710   16.8280 S.3       1 MOL        -0.0904
      2 C1         -9.4350   28.0580   15.5470 C.3       1 MOL         0.0324
      3 C2        -10.3440   29.2860   15.5040 C.3       1 MOL         0.0915
      4 O2         -9.9550   30.1040   14.4400 O.3       1 MOL        -0.3884
      5 C3        -10.2730   30.1120   16.8040 C.3       1 MOL         0.0915
      6 O3        -11.0080   31.3010   16.6410 O.3       1 MOL        -0.3884
      7 C4        -10.8240   29.3500   17.9940 C.3       1 MOL         0.0324
      8 S4         -9.7290   27.9580   18.4340 S.3       1 MOL        -0.0904
      9 H1         -9.4787   27.5552   14.5696 H         1 MOL         0.0411
     10 H2         -8.4050   28.3911   15.7423 H         1 MOL         0.0411
     11 H3        -11.3810   28.9526   15.3510 H         1 MOL         0.0628
     12 H4        -10.5170   30.8693   14.4085 H         1 MOL         0.2099
     13 H5         -9.2205   30.3620   17.0034 H         1 MOL         0.0628
     14 H6        -10.6399   31.8037   15.9239 H         1 MOL         0.2099
     15 H7        -11.8209   28.9592   17.7421 H         1 MOL         0.0411
     16 H8        -10.9039   30.0318   18.8535 H         1 MOL         0.0411
@<TRIPOS>BOND
     1    1    2 1  
     2    1    8 1  
     3    2    3 1  
     4    3    4 1  
     5    3    5 1  
     6    5    6 1  
     7    5    7 1  
     8    7    8 1  
     9    2    9 1  
    10    2   10 1  
    11    3   11 1  
    12    4   12 1  
    13    5   13 1  
    14    6   14 1  
    15    7   15 1  
    16    7   16 1  
@<TRIPOS>SUBSTRUCTURE
     1 MOL         1

