### 
### Created by X-TOOL on Fri Sep 26 17:34:30 2014
### 

@<TRIPOS>MOLECULE
1yuc_ligand
  117   116     1     0     0
SMALL
GAST_HUCK


@<TRIPOS>ATOM
      1 C1         55.3060    8.3660    6.4760 C.3       1 pro         0.1098
      2 C2         54.2560    7.9560    7.5170 C.3       1 pro         0.1433
      3 C4         57.7490    8.3070    6.3070 C.2       1 pro         0.2338
      4 O2         56.6050    8.4780    7.0340 O.3       1 pro        -0.2738
      5 O4         58.1090    9.1270    5.4840 O.2       1 pro        -0.3704
      6 C18        58.5640    7.0360    6.5650 C.3       1 pro         0.0487
      7 C19        59.4560    6.9410    7.8410 C.3       1 pro        -0.0348
      8 C20        59.4240    8.1880    8.7590 C.3       1 pro        -0.0509
      9 C21        60.3360    8.0210    9.9870 C.3       1 pro        -0.0529
     10 C22        59.6390    8.4110   11.3020 C.3       1 pro        -0.0530
     11 C23        60.5330    9.3130   12.1740 C.3       1 pro        -0.0529
     12 C24        59.8550    9.6980   13.5020 C.3       1 pro        -0.0515
     13 C25        60.8440    9.6440   14.6810 C.3       1 pro        -0.0464
     14 C26        60.1740   10.0210   16.0130 C.3       1 pro        -0.0365
     15 C27        61.2060   10.2800   17.0920 C.2       1 pro        -0.0987
     16 C28        61.0490   10.2330   18.4350 C.2       1 pro        -0.0987
     17 C29        59.7960    9.9070   19.2220 C.3       1 pro        -0.0365
     18 C30        58.9660   11.1710   19.4940 C.3       1 pro        -0.0464
     19 C31        57.6870   10.8550   20.2850 C.3       1 pro        -0.0515
     20 C32        56.8540   12.1190   20.5530 C.3       1 pro        -0.0532
     21 C33        55.5690   11.8060   21.3350 C.3       1 pro        -0.0559
     22 C34        54.7400   13.0680   21.5960 C.3       1 pro        -0.0653
     23 C37        52.8440    8.4380    7.1610 C.3       1 pro         0.1167
     24 O5         52.7960    9.8600    7.1960 O.3       1 pro        -0.2511
     25 C3         55.0330    7.7370    9.8120 C.2       1 pro         0.2341
     26 O1         54.6580    8.5400    8.7630 O.3       1 pro        -0.2681
     27 O3         55.0590    6.5180    9.7880 O.2       1 pro        -0.3704
     28 C5         55.4120    8.6160   11.0000 C.3       1 pro         0.0487
     29 C6         55.7880    7.8440   12.2740 C.3       1 pro        -0.0348
     30 C7         55.0230    8.3730   13.4970 C.3       1 pro        -0.0509
     31 C8         55.1170    7.4190   14.6980 C.3       1 pro        -0.0529
     32 C9         55.9390    8.0250   15.8490 C.3       1 pro        -0.0530
     33 C10        55.1890    7.9550   17.2030 C.3       1 pro        -0.0529
     34 C11        54.4560    9.2580   17.6570 C.3       1 pro        -0.0515
     35 C12        54.5640   10.4610   16.6940 C.3       1 pro        -0.0464
     36 C13        55.6480   11.4500   17.1320 C.3       1 pro        -0.0365
     37 C14        55.3310   12.8340   16.6320 C.2       1 pro        -0.0987
     38 C15        55.8990   13.4930   15.6070 C.2       1 pro        -0.0987
     39 C16        57.0020   13.0250   14.6880 C.3       1 pro        -0.0365
     40 C17        58.0810   14.1120   14.5470 C.3       1 pro        -0.0467
     41 C35        59.4910   13.5670   14.8830 C.3       1 pro        -0.0544
     42 C36        60.3640   14.4540   15.8190 C.3       1 pro        -0.0651
     43 P1         51.4510   10.6170    7.6770 P.3       1 pro         0.2550
     44 O6         51.0190   10.1060    9.2730 O.co2     1 pro        -0.6177
     45 O7         51.6470   12.0810    7.6380 O.co2     1 pro        -0.6177
     46 O8         50.2880   10.2060    6.6230 O.3       1 pro        -0.2574
     47 C38        50.4120   10.5250    5.2450 C.3       1 pro         0.0727
     48 H1         55.0197    9.3387    6.0495 H         1 pro         0.0644
     49 H2         55.3280    7.6082    5.6790 H         1 pro         0.0644
     50 H3         54.2425    6.8596    7.6045 H         1 pro         0.0704
     51 H4         59.2289    6.9011    5.6992 H         1 pro         0.0518
     52 H5         57.8489    6.2014    6.6118 H         1 pro         0.0518
     53 H6         60.4956    6.7815    7.5190 H         1 pro         0.0291
     54 H7         59.1176    6.0757    8.4298 H         1 pro         0.0291
     55 H8         58.3917    8.3502    9.1024 H         1 pro         0.0267
     56 H9         59.7605    9.0624    8.1827 H         1 pro         0.0267
     57 H10        61.2226    8.6588    9.8562 H         1 pro         0.0265
     58 H11        60.6480    6.9683   10.0530 H         1 pro         0.0265
     59 H12        59.3997    7.4961   11.8638 H         1 pro         0.0265
     60 H13        58.7097    8.9505   11.0667 H         1 pro         0.0265
     61 H14        60.7619   10.2318   11.6142 H         1 pro         0.0265
     62 H15        61.4673    8.7766   12.3962 H         1 pro         0.0265
     63 H16        59.0290    8.9982   13.6969 H         1 pro         0.0267
     64 H17        59.4573   10.7200   13.4165 H         1 pro         0.0267
     65 H18        61.6674   10.3469   14.4863 H         1 pro         0.0285
     66 H19        61.2449    8.6229   14.7617 H         1 pro         0.0285
     67 H20        59.5207    9.1956   16.3322 H         1 pro         0.0388
     68 H21        59.5718   10.9299   15.8671 H         1 pro         0.0388
     69 H22        62.2041   10.5375   16.7406 H         1 pro         0.0450
     70 H23        61.9360   10.4581   19.0254 H         1 pro         0.0450
     71 H24        60.0832    9.4530   20.1819 H         1 pro         0.0388
     72 H25        59.1864    9.1944   18.6470 H         1 pro         0.0388
     73 H26        58.6865   11.6271   18.5328 H         1 pro         0.0285
     74 H27        59.5763   11.8800   20.0726 H         1 pro         0.0285
     75 H28        57.9665   10.4022   21.2477 H         1 pro         0.0267
     76 H29        57.0783   10.1433   19.7080 H         1 pro         0.0267
     77 H30        56.5814   12.5756   19.5901 H         1 pro         0.0265
     78 H31        57.4609   12.8274   21.1360 H         1 pro         0.0265
     79 H32        55.8407   11.3527   22.2997 H         1 pro         0.0263
     80 H33        54.9627   11.0956   20.7539 H         1 pro         0.0263
     81 H34        53.8319   12.8008   22.1563 H         1 pro         0.0230
     82 H35        54.4574   13.5260   20.6367 H         1 pro         0.0230
     83 H36        55.3355   13.7831   22.1825 H         1 pro         0.0230
     84 H37        52.1253    8.0306    7.8872 H         1 pro         0.0651
     85 H38        52.5828    8.0888    6.1512 H         1 pro         0.0651
     86 H39        54.5554    9.2656   11.2330 H         1 pro         0.0518
     87 H40        56.2729    9.2351   10.7076 H         1 pro         0.0518
     88 H41        56.8679    7.9530   12.4529 H         1 pro         0.0291
     89 H42        55.5452    6.7805   12.1327 H         1 pro         0.0291
     90 H43        53.9643    8.4977   13.2258 H         1 pro         0.0267
     91 H44        55.4451    9.3472   13.7847 H         1 pro         0.0267
     92 H45        55.5962    6.4838   14.3727 H         1 pro         0.0265
     93 H46        54.1014    7.2035   15.0614 H         1 pro         0.0265
     94 H47        56.1519    9.0787   15.6159 H         1 pro         0.0265
     95 H48        56.8850    7.4709   15.9389 H         1 pro         0.0265
     96 H49        55.9234    7.6958   17.9798 H         1 pro         0.0265
     97 H50        54.4366    7.1560   17.1284 H         1 pro         0.0265
     98 H51        54.8783    9.5626   18.6260 H         1 pro         0.0267
     99 H52        53.3893    9.0195   17.7806 H         1 pro         0.0267
    100 H53        53.5962   10.9832   16.6679 H         1 pro         0.0285
    101 H54        54.8076   10.0897   15.6876 H         1 pro         0.0285
    102 H55        56.6172   11.1300   16.7219 H         1 pro         0.0388
    103 H56        55.7017   11.4654   18.2306 H         1 pro         0.0388
    104 H57        54.5454   13.3667   17.1659 H         1 pro         0.0450
    105 H58        55.5140   14.4933   15.4147 H         1 pro         0.0450
    106 H59        56.5787   12.8041   13.6971 H         1 pro         0.0388
    107 H60        57.4576   12.1141   15.1034 H         1 pro         0.0388
    108 H61        57.8457   14.9389   15.2332 H         1 pro         0.0285
    109 H62        58.0798   14.4832   13.5115 H         1 pro         0.0285
    110 H63        60.0364   13.4396   13.9362 H         1 pro         0.0264
    111 H64        59.3658   12.5880   15.3687 H         1 pro         0.0264
    112 H65        61.3361   13.9665   15.9842 H         1 pro         0.0230
    113 H66        59.8511   14.5852   16.7832 H         1 pro         0.0230
    114 H67        60.5216   15.4368   15.3508 H         1 pro         0.0230
    115 H68        49.5254   10.1632    4.7037 H         1 pro         0.0584
    116 H69        51.3127   10.0433    4.8367 H         1 pro         0.0584
    117 H70        50.4939   11.6156    5.1270 H         1 pro         0.0584
@<TRIPOS>BOND
     1    1    2 1  
     2    1    4 1  
     3    2   23 1  
     4    2   26 1  
     5    4    3 1  
     6    3    5 2  
     7    3    6 1  
     8    6    7 1  
     9    7    8 1  
    10    8    9 1  
    11    9   10 1  
    12   10   11 1  
    13   11   12 1  
    14   12   13 1  
    15   13   14 1  
    16   14   15 1  
    17   15   16 2  
    18   16   17 1  
    19   17   18 1  
    20   18   19 1  
    21   19   20 1  
    22   20   21 1  
    23   21   22 1  
    24   23   24 1  
    25   24   43 1  
    26   26   25 1  
    27   25   27 2  
    28   25   28 1  
    29   28   29 1  
    30   29   30 1  
    31   30   31 1  
    32   31   32 1  
    33   32   33 1  
    34   33   34 1  
    35   34   35 1  
    36   35   36 1  
    37   36   37 1  
    38   37   38 2  
    39   38   39 1  
    40   39   40 1  
    41   40   41 1  
    42   41   42 1  
    43   43   44 ar 
    44   43   45 ar 
    45   43   46 1  
    46   46   47 1  
    47    1   48 1  
    48    1   49 1  
    49    2   50 1  
    50    6   51 1  
    51    6   52 1  
    52    7   53 1  
    53    7   54 1  
    54    8   55 1  
    55    8   56 1  
    56    9   57 1  
    57    9   58 1  
    58   10   59 1  
    59   10   60 1  
    60   11   61 1  
    61   11   62 1  
    62   12   63 1  
    63   12   64 1  
    64   13   65 1  
    65   13   66 1  
    66   14   67 1  
    67   14   68 1  
    68   15   69 1  
    69   16   70 1  
    70   17   71 1  
    71   17   72 1  
    72   18   73 1  
    73   18   74 1  
    74   19   75 1  
    75   19   76 1  
    76   20   77 1  
    77   20   78 1  
    78   21   79 1  
    79   21   80 1  
    80   22   81 1  
    81   22   82 1  
    82   22   83 1  
    83   23   84 1  
    84   23   85 1  
    85   28   86 1  
    86   28   87 1  
    87   29   88 1  
    88   29   89 1  
    89   30   90 1  
    90   30   91 1  
    91   31   92 1  
    92   31   93 1  
    93   32   94 1  
    94   32   95 1  
    95   33   96 1  
    96   33   97 1  
    97   34   98 1  
    98   34   99 1  
    99   35  100 1  
   100   35  101 1  
   101   36  102 1  
   102   36  103 1  
   103   37  104 1  
   104   38  105 1  
   105   39  106 1  
   106   39  107 1  
   107   40  108 1  
   108   40  109 1  
   109   41  110 1  
   110   41  111 1  
   111   42  112 1  
   112   42  113 1  
   113   42  114 1  
   114   47  115 1  
   115   47  116 1  
   116   47  117 1  
@<TRIPOS>SUBSTRUCTURE
     1 pro         1

