### 
### Created by X-TOOL on Fri Sep 26 17:34:30 2014
### 

@<TRIPOS>MOLECULE
1zlv_ligand
   87    90     1     0     0
SMALL
GAST_HUCK


@<TRIPOS>ATOM
      1 H          20.3591  -32.4442  -38.1272 H         1 MAN229      0.0938
      2 H          22.4991  -33.1993  -37.0222 H         1 MAN229      0.0671
      3 H          21.6686  -35.3144  -36.1297 H         1 MAN229      0.0648
      4 H          19.8980  -33.6476  -34.3212 H         1 MAN229      0.0647
      5 H          19.3395  -35.6313  -36.5576 H         1 MAN229      0.0647
      6 H          17.6740  -35.3472  -34.5733 H         1 MAN229      0.0584
      7 H          17.0740  -35.3653  -36.2664 H         1 MAN229      0.0584
      8 H          22.0082  -31.9252  -35.1894 H         1 MAN229      0.2101
      9 H          22.5557  -35.1810  -34.0682 H         1 MAN229      0.2100
     10 H          20.8049  -35.5533  -33.4193 H         1 MAN229      0.2100
     11 H          17.0812  -33.0699  -36.1639 H         1 MAN229      0.2095
     12 H          18.6021  -35.2595  -38.6724 H         1 MAN229      0.0938
     13 H          19.5960  -33.5257  -39.9249 H         1 MAN229      0.0675
     14 H          20.4163  -34.8925  -41.8597 H         1 MAN229      0.0648
     15 H          22.3852  -36.0126  -39.7926 H         1 MAN229      0.0647
     16 H          20.1458  -37.4282  -41.2532 H         1 MAN229      0.0647
     17 H          21.9466  -38.4254  -38.9875 H         1 MAN229      0.0584
     18 H          22.0011  -38.9595  -40.7017 H         1 MAN229      0.0584
     19 H          22.4882  -33.7790  -40.2358 H         1 MAN229      0.2100
     20 H          23.2831  -35.7812  -41.8953 H         1 MAN229      0.2100
     21 H          19.6986  -39.0244  -39.0003 H         1 MAN229      0.2095
     22 H          17.3810  -38.7894  -41.6817 H         1 MAN229      0.0938
     23 H          16.4015  -37.8334  -39.6015 H         1 MAN229      0.0675
     24 H          14.4385  -36.6943  -40.4057 H         1 MAN229      0.0648
     25 H          15.9797  -34.5430  -41.8341 H         1 MAN229      0.0647
     26 H          14.8768  -36.7932  -43.4829 H         1 MAN229      0.0647
     27 H          17.3291  -35.4867  -44.3877 H         1 MAN229      0.0584
     28 H          16.1003  -34.2650  -43.9144 H         1 MAN229      0.0584
     29 H          16.3929  -34.7515  -39.6707 H         1 MAN229      0.2100
     30 H          13.7122  -34.4461  -41.3506 H         1 MAN229      0.2100
     31 H          15.8784  -34.9574  -46.1118 H         1 MAN229      0.2095
     32 H          16.3203  -43.2367  -42.0074 H         1 MAN229      0.0935
     33 H          15.8445  -41.7192  -40.4913 H         1 MAN229      0.0671
     34 H          14.4128  -40.3894  -41.0983 H         1 MAN229      0.0651
     35 H          14.7768  -39.7563  -43.9035 H         1 MAN229      0.0647
     36 H          14.5295  -42.7003  -43.2554 H         1 MAN229      0.0647
     37 H          13.6913  -41.3304  -45.4301 H         1 MAN229      0.0584
     38 H          14.2918  -43.0222  -45.4905 H         1 MAN229      0.0584
     39 H          18.5929  -41.5968  -42.5337 H         1 MAN229      0.2126
     40 H          18.0784  -41.2262  -40.5136 H         1 MAN229      0.2101
     41 H          12.8956  -39.7444  -42.5486 H         1 MAN229      0.2100
     42 H          16.3500  -42.1422  -46.0429 H         1 MAN229      0.2095
     43 C1         20.4420  -33.3960  -37.5820 C.3       1 MAN229      0.1885
     44 C2         21.5180  -33.2330  -36.5260 C.3       1 MAN229      0.1341
     45 C3         21.5030  -34.4040  -35.5350 C.3       1 MAN229      0.1141
     46 C4         20.1350  -34.5380  -34.9220 C.3       1 MAN229      0.1119
     47 C5         19.1010  -34.6910  -36.0390 C.3       1 MAN229      0.1130
     48 C6         17.6710  -34.8060  -35.5310 C.3       1 MAN229      0.0730
     49 O2         21.3150  -32.0390  -35.8290 O.3       1 MAN229     -0.3841
     50 O3         22.5640  -34.3750  -34.5710 O.3       1 MAN229     -0.3864
     51 O4         20.1570  -35.6710  -34.1040 O.3       1 MAN229     -0.3865
     52 O5         19.1650  -33.6450  -37.0050 O.3       1 MAN229     -0.3405
     53 O6         17.0910  -33.5410  -35.3390 O.3       1 MAN229     -0.3924
     54 C1         19.0910  -35.6030  -39.5960 C.3       1 MAN229      0.1889
     55 C2         20.1070  -34.4830  -39.7450 C.3       1 MAN229      0.1406
     56 C3         21.0130  -34.8270  -40.9380 C.3       1 MAN229      0.1144
     57 C4         21.7640  -36.1560  -40.6890 C.3       1 MAN229      0.1119
     58 C5         20.7250  -37.2360  -40.3380 C.3       1 MAN229      0.1130
     59 C6         21.3570  -38.5550  -39.9070 C.3       1 MAN229      0.0730
     60 O2         20.8850  -34.4010  -38.5350 O.3       1 MAN229     -0.3378
     61 O3         21.9890  -33.8200  -41.0430 O.3       1 MAN229     -0.3864
     62 O4         22.6830  -36.5030  -41.7490 O.3       1 MAN229     -0.3865
     63 O5         19.7980  -36.8130  -39.3150 O.3       1 MAN229     -0.3405
     64 O6         20.2470  -39.4000  -39.6790 O.3       1 MAN229     -0.3924
     65 C1         16.5580  -38.0620  -41.7410 C.3       1 MAN229      0.1888
     66 C2         16.5190  -37.1970  -40.4910 C.3       1 MAN229      0.1406
     67 C3         15.3930  -36.1700  -40.5610 C.3       1 MAN229      0.1144
     68 C4         15.3140  -35.4160  -41.9020 C.3       1 MAN229      0.1119
     69 C5         15.7550  -36.2430  -43.1140 C.3       1 MAN229      0.1130
     70 C6         16.2560  -35.3090  -44.2240 C.3       1 MAN229      0.0730
     71 O2         17.7050  -36.4560  -40.4220 O.3       1 MAN229     -0.3377
     72 O3         15.5850  -35.2280  -39.5200 O.3       1 MAN229     -0.3864
     73 O4         13.9860  -34.9590  -42.1020 O.3       1 MAN229     -0.3865
     74 O5         16.7770  -37.1910  -42.8210 O.3       1 MAN229     -0.3405
     75 O6         15.5530  -35.5450  -45.4400 O.3       1 MAN229     -0.3924
     76 C1         16.7820  -42.2840  -42.3060 C.3       1 MAN229      0.1854
     77 C2         16.3170  -41.1870  -41.3300 C.3       1 MAN229      0.1343
     78 C3         15.2020  -40.2050  -41.8420 C.3       1 MAN229      0.1206
     79 C4         14.5470  -40.5560  -43.1840 C.3       1 MAN229      0.1123
     80 C5         15.0070  -41.8750  -43.8040 C.3       1 MAN229      0.1130
     81 C6         14.5660  -41.9790  -45.2750 C.3       1 MAN229      0.0730
     82 O1         18.1920  -42.4110  -42.2530 O.3       1 MAN229     -0.3649
     83 O2         17.4600  -40.5630  -40.7970 O.3       1 MAN229     -0.3841
     84 O3         15.3120  -38.7650  -41.8350 O.3       1 MAN229     -0.3400
     85 O4         13.1570  -40.5730  -42.9330 O.3       1 MAN229     -0.3865
     86 O5         16.4120  -41.9950  -43.6400 O.3       1 MAN229     -0.3407
     87 O6         15.5920  -41.5830  -46.1660 O.3       1 MAN229     -0.3924
@<TRIPOS>BOND
     1   43    1 1  
     2   44    2 1  
     3   45    3 1  
     4   46    4 1  
     5   47    5 1  
     6   48    6 1  
     7   48    7 1  
     8   49    8 1  
     9   50    9 1  
    10   51   10 1  
    11   53   11 1  
    12   54   12 1  
    13   55   13 1  
    14   56   14 1  
    15   57   15 1  
    16   58   16 1  
    17   59   17 1  
    18   59   18 1  
    19   61   19 1  
    20   62   20 1  
    21   64   21 1  
    22   65   22 1  
    23   66   23 1  
    24   67   24 1  
    25   68   25 1  
    26   69   26 1  
    27   70   27 1  
    28   70   28 1  
    29   72   29 1  
    30   73   30 1  
    31   75   31 1  
    32   76   32 1  
    33   77   33 1  
    34   78   34 1  
    35   79   35 1  
    36   80   36 1  
    37   81   37 1  
    38   81   38 1  
    39   82   39 1  
    40   83   40 1  
    41   85   41 1  
    42   87   42 1  
    43   43   44 1  
    44   43   52 1  
    45   44   45 1  
    46   44   49 1  
    47   45   46 1  
    48   45   50 1  
    49   47   46 1  
    50   46   51 1  
    51   47   48 1  
    52   52   47 1  
    53   48   53 1  
    54   55   54 1  
    55   54   63 1  
    56   55   56 1  
    57   60   55 1  
    58   56   57 1  
    59   56   61 1  
    60   57   58 1  
    61   57   62 1  
    62   58   59 1  
    63   63   58 1  
    64   59   64 1  
    65   66   65 1  
    66   65   74 1  
    67   66   67 1  
    68   71   66 1  
    69   67   68 1  
    70   67   72 1  
    71   68   69 1  
    72   68   73 1  
    73   69   70 1  
    74   74   69 1  
    75   70   75 1  
    76   77   76 1  
    77   76   82 1  
    78   76   86 1  
    79   78   77 1  
    80   77   83 1  
    81   78   79 1  
    82   84   78 1  
    83   79   80 1  
    84   79   85 1  
    85   80   81 1  
    86   80   86 1  
    87   81   87 1  
    88   65   84 1  
    89   54   71 1  
    90   60   43 1  
@<TRIPOS>SUBSTRUCTURE
     1 MAN229      1

