### 
### Created by X-TOOL on Fri Sep 26 17:34:35 2014
### 

@<TRIPOS>MOLECULE
2hmh_ligand
  168   169     1     0     0
SMALL
GAST_HUCK


@<TRIPOS>ATOM
      1 N          31.5070   13.2800   47.4740 N.4       1 SER         0.2396
      2 CA         30.0830   13.1510   47.7840 C.3       1 SER         0.0885
      3 C          29.5720   11.7860   47.3380 C.2       1 SER         0.2291
      4 O          29.8100   11.3660   46.2010 O.2       1 SER        -0.3906
      5 CB         29.2620   14.2400   47.0800 C.3       1 SER         0.1041
      6 OG         29.8070   15.5380   47.2450 O.3       1 SER        -0.3870
      7 N          28.8810   11.0890   48.2380 N.am      1 SER        -0.2585
      8 CA         28.1960    9.8610   47.8740 C.3       1 SER         0.1566
      9 C          27.0000   10.2410   46.9980 C.2       1 SER         0.2065
     10 O          26.2020   11.1110   47.3660 O.2       1 SER        -0.3943
     11 CB         27.7870    9.0310   49.1230 C.3       1 SER         0.0924
     12 OG1        28.9180    8.2700   49.5670 O.3       1 SER        -0.3874
     13 CG2        26.6530    8.0630   48.8140 C.3       1 SER        -0.0346
     14 N          26.9240    9.6120   45.8280 N.am      1 SER        -0.2634
     15 CA         25.8810    9.8740   44.8380 C.3       1 SER         0.1333
     16 C          24.8590    8.7200   44.8260 C.2       1 SER         0.2042
     17 O          25.0930    7.6640   44.2370 O.2       1 SER        -0.3944
     18 CB         26.4960   10.1110   43.4230 C.3       1 SER        -0.0063
     19 CG1        25.4170   10.4450   42.4110 C.3       1 SER        -0.0584
     20 CG2        27.5270   11.2350   43.4700 C.3       1 SER        -0.0584
     21 N          23.7260    8.9490   45.4750 N.am      1 SER        -0.2636
     22 CA         22.7140    7.9080   45.6760 C.3       1 SER         0.1325
     23 C          21.6200    7.9280   44.6110 C.2       1 SER         0.2042
     24 O          21.0290    8.9720   44.3370 O.2       1 SER        -0.3944
     25 CB         22.0890    8.0410   47.0680 C.3       1 SER        -0.0008
     26 CG         23.0550    7.6890   48.2030 C.3       1 SER         0.0044
     27 CD         22.5030    8.0430   49.5730 C.2       1 SER         0.0350
     28 OE1        21.5280    7.3870   50.0020 O.co2     1 SER        -0.5690
     29 OE2        23.0450    8.9780   50.2120 O.co2     1 SER        -0.5690
     30 N          21.3530    6.7630   44.0300 N.am      1 SER        -0.2607
     31 CA         20.2900    6.6280   43.0340 C.3       1 SER         0.1468
     32 C          19.0090    6.0760   43.6360 C.2       1 SER         0.2075
     33 O          19.0400    5.3430   44.6280 O.2       1 SER        -0.3941
     34 CB         20.7510    5.9200   41.7560 C.3       1 SER         0.0400
     35 CG         21.6560    6.8060   40.9260 C.ar      1 SER        -0.0004
     36 CD1        23.0120    6.9340   41.2380 C.ar      1 SER        -0.0239
     37 CD2        21.1540    7.5520   39.8600 C.ar      1 SER        -0.0239
     38 CE1        23.8450    7.7550   40.5030 C.ar      1 SER         0.0115
     39 CE2        21.9820    8.3960   39.1260 C.ar      1 SER         0.0115
     40 CZ         23.3320    8.4880   39.4450 C.ar      1 SER         0.1728
     41 OH         24.1050    9.2380   38.8200 O.3       1 SER        -0.2040
     42 P          24.5750    8.9330   37.3260 P.3       1 SER         0.1348
     43 O1P        25.4320   10.0240   36.8320 O.co2     1 SER        -0.6653
     44 O2P        23.3490    8.7810   36.3970 O.co2     1 SER        -0.6653
     45 O3P        25.3810    7.6210   37.3350 O.co2     1 SER        -0.6653
     46 N          17.8800    6.4600   43.0400 N.am      1 SER        -0.2613
     47 CA         16.5760    6.0020   43.4710 C.3       1 SER         0.1539
     48 C          15.6880    5.8030   42.2490 C.2       1 SER         0.2063
     49 O          16.0090    6.2550   41.1500 O.2       1 SER        -0.3943
     50 CB         15.9370    7.0080   44.4400 C.3       1 SER         0.0843
     51 OG         16.8050    7.3040   45.5190 O.3       1 SER        -0.3903
     52 N          14.5850    5.0940   42.4440 N.am      1 SER        -0.2613
     53 CA         13.5680    4.9820   41.4190 C.3       1 SER         0.1565
     54 C          12.2580    5.4530   42.0380 C.2       1 SER         0.2065
     55 O          12.1350    5.5060   43.2770 O.2       1 SER        -0.3943
     56 CB         13.4520    3.5360   40.8340 C.3       1 SER         0.0924
     57 OG1        12.9150    2.6610   41.8170 O.3       1 SER        -0.3874
     58 CG2        14.7920    2.9920   40.4150 C.3       1 SER        -0.0346
     59 N          11.2970    5.8200   41.1860 N.am      1 SER        -0.2634
     60 CA         10.0290    6.3680   41.6360 C.3       1 SER         0.1333
     61 C           8.9780    5.2590   41.7350 C.2       1 SER         0.2042
     62 O           8.8390    4.4630   40.8210 O.2       1 SER        -0.3944
     63 CB          9.5040    7.4810   40.6600 C.3       1 SER        -0.0063
     64 CG1         8.2850    8.1590   41.2300 C.3       1 SER        -0.0584
     65 CG2        10.5750    8.5200   40.4000 C.3       1 SER        -0.0584
     66 N           8.2460    5.2090   42.8480 N.am      1 SER        -0.2635
     67 CA          7.0580    4.3550   42.9220 C.3       1 SER         0.1333
     68 C           5.8760    5.1480   42.4210 C.2       1 SER         0.2042
     69 O           5.4700    6.1310   43.0370 O.2       1 SER        -0.3944
     70 CB          6.7780    3.7950   44.3480 C.3       1 SER        -0.0063
     71 CG1         5.6560    2.7450   44.3010 C.3       1 SER        -0.0584
     72 CG2         8.0300    3.2210   44.9550 C.3       1 SER        -0.0584
     73 N           5.3550    4.7390   41.2680 N.am      1 SER        -0.2625
     74 CA          4.1550    5.3330   40.6960 C.3       1 SER         0.1369
     75 C           2.9340    4.5460   41.1670 C.2       1 SER         0.2049
     76 O           2.6180    3.4930   40.6240 O.2       1 SER        -0.3943
     77 CB          4.2390    5.3640   39.1600 C.3       1 SER         0.0145
     78 CG          5.3600    6.2150   38.6290 C.2       1 SER        -0.0027
     79 ND1         6.5830    5.6940   38.2610 N.2       1 SER        -0.3252
     80 CD2         5.4330    7.5470   38.3900 C.2       1 SER         0.0291
     81 CE1         7.3590    6.6680   37.8100 C.2       1 SER         0.0907
     82 NE2         6.6910    7.8060   37.8930 N.pl3     1 SER        -0.2752
     83 N           2.2750    5.0470   42.2080 N.am      1 SER        -0.2671
     84 CA          1.0780    4.4060   42.7510 C.3       1 SER         0.1173
     85 C           0.0770    5.4380   43.2650 C.2       1 SER         0.0623
     86 O           0.2990    6.6550   43.1430 O.co2     1 SER        -0.5665
     87 CB          1.4550    3.4350   43.8740 C.3       1 SER         0.0789
     88 OG          2.3580    2.4370   43.4210 O.3       1 SER        -0.3910
     89 OXT        -0.9710    5.0790   43.8420 O.co2     1 SER        -0.5665
     90 H1         31.8352   14.1851   47.7725 H         1 SER         0.2016
     91 H2         31.6446   13.1837   46.4801 H         1 SER         0.2016
     92 H3         32.0224   12.5601   47.9559 H         1 SER         0.2016
     93 H4         29.9486   13.2493   48.8713 H         1 SER         0.1122
     94 H5         28.2426   14.2327   47.4933 H         1 SER         0.0640
     95 H6         29.2235   14.0101   46.0050 H         1 SER         0.0640
     96 H7         29.2614   16.1694   46.7910 H         1 SER         0.2099
     97 H8         28.8328   11.4170   49.1815 H         1 SER         0.1885
     98 H9         28.8813    9.2426   47.2757 H         1 SER         0.0826
     99 H10        27.4666    9.7183   49.9199 H         1 SER         0.0639
    100 H11        28.6750    7.7599   50.3307 H         1 SER         0.2101
    101 H12        26.3958    7.4978   49.7219 H         1 SER         0.0257
    102 H13        26.9712    7.3651   48.0255 H         1 SER         0.0257
    103 H14        25.7728    8.6267   48.4714 H         1 SER         0.0257
    104 H15        27.6172    8.9235   45.6146 H         1 SER         0.1883
    105 H16        25.3528   10.7926   45.1332 H         1 SER         0.0802
    106 H17        26.9994    9.1863   43.1044 H         1 SER         0.0343
    107 H18        25.8767   10.6068   41.4248 H         1 SER         0.0234
    108 H19        24.8904   11.3585   42.7244 H         1 SER         0.0234
    109 H20        24.7013    9.6120   42.3496 H         1 SER         0.0234
    110 H21        28.3065   10.9870   44.2054 H         1 SER         0.0234
    111 H22        27.0331   12.1736   43.7617 H         1 SER         0.0234
    112 H23        27.9846   11.3546   42.4769 H         1 SER         0.0234
    113 H24        23.5558    9.8642   45.8403 H         1 SER         0.1883
    114 H25        23.2209    6.9336   45.6172 H         1 SER         0.0801
    115 H26        21.2214    7.3674   47.1268 H         1 SER         0.0330
    116 H27        21.7560    9.0806   47.2031 H         1 SER         0.0330
    117 H28        23.9946    8.2398   48.0491 H         1 SER         0.0433
    118 H29        23.2546    6.6077   48.1727 H         1 SER         0.0433
    119 H30        21.8921    5.9587   44.2798 H         1 SER         0.1886
    120 H31        20.0454    7.6539   42.7213 H         1 SER         0.0840
    121 H32        19.8678    5.6511   41.1579 H         1 SER         0.0584
    122 H33        21.2993    5.0070   42.0312 H         1 SER         0.0584
    123 H34        23.4188    6.3773   42.0744 H         1 SER         0.0703
    124 H35        20.1047    7.4734   39.5996 H         1 SER         0.0703
    125 H36        24.8973    7.8256   40.7533 H         1 SER         0.0736
    126 H37        21.5756    8.9799   38.3081 H         1 SER         0.0736
    127 H38        17.9361    7.0891   42.2647 H         1 SER         0.1884
    128 H39        16.6907    5.0389   43.9900 H         1 SER         0.0823
    129 H40        15.0044    6.5807   44.8370 H         1 SER         0.0606
    130 H41        15.7121    7.9370   43.8956 H         1 SER         0.0606
    131 H42        16.3848    7.9268   46.1003 H         1 SER         0.2097
    132 H43        14.4523    4.6263   43.3179 H         1 SER         0.1884
    133 H44        13.8301    5.6561   40.5902 H         1 SER         0.0826
    134 H45        12.7844    3.5611   39.9601 H         1 SER         0.0639
    135 H46        12.8469    1.7849   41.4562 H         1 SER         0.2101
    136 H47        14.6654    1.9768   40.0108 H         1 SER         0.0257
    137 H48        15.4629    2.9588   41.2861 H         1 SER         0.0257
    138 H49        15.2266    3.6429   39.6420 H         1 SER         0.0257
    139 H50        11.4558    5.7139   40.2044 H         1 SER         0.1883
    140 H51        10.1753    6.8120   42.6317 H         1 SER         0.0802
    141 H52         9.2319    7.0069   39.7054 H         1 SER         0.0343
    142 H53         7.9355    8.9331   40.5310 H         1 SER         0.0234
    143 H54         8.5408    8.6237   42.1936 H         1 SER         0.0234
    144 H55         7.4888    7.4152   41.3814 H         1 SER         0.0234
    145 H56        11.4676    8.0302   39.9836 H         1 SER         0.0234
    146 H57        10.8378    9.0199   41.3439 H         1 SER         0.0234
    147 H58        10.1975    9.2644   39.6836 H         1 SER         0.0234
    148 H59         8.5103    5.7596   43.6398 H         1 SER         0.1883
    149 H60         7.2141    3.4959   42.2530 H         1 SER         0.0802
    150 H61         6.4418    4.6274   44.9836 H         1 SER         0.0343
    151 H62         5.4712    2.3603   45.3148 H         1 SER         0.0234
    152 H63         5.9569    1.9160   43.6435 H         1 SER         0.0234
    153 H64         4.7372    3.2074   43.9111 H         1 SER         0.0234
    154 H65         8.8141    3.9922   44.9760 H         1 SER         0.0234
    155 H66         8.3717    2.3670   44.3518 H         1 SER         0.0234
    156 H67         7.8192    2.8845   45.9808 H         1 SER         0.0234
    157 H68         5.8048    3.9945   40.7746 H         1 SER         0.1885
    158 H69         4.0668    6.3680   41.0578 H         1 SER         0.0817
    159 H70         3.2895    5.7582   38.7689 H         1 SER         0.0420
    160 H71         4.3848    4.3349   38.8000 H         1 SER         0.0420
    161 H72         4.6432    8.2773   38.5596 H         1 SER         0.0729
    162 H73         8.3746    6.5514   37.4346 H         1 SER         0.1199
    163 H74         7.0522    8.7339   37.6293 H         1 SER         0.2361
    164 H75         2.6086    5.8886   42.6328 H         1 SER         0.1876
    165 H76         0.5986    3.8341   41.9429 H         1 SER         0.0749
    166 H77         0.5418    2.9477   44.2461 H         1 SER         0.0599
    167 H78         1.9279    4.0001   44.6907 H         1 SER         0.0599
    168 H79         2.5703    1.8536   44.1401 H         1 SER         0.2096
@<TRIPOS>BOND
     1    1    2 1  
     2    2    3 1  
     3    2    5 1  
     4    3    4 2  
     5    3    7 am 
     6    5    6 1  
     7    7    8 1  
     8    8    9 1  
     9    8   11 1  
    10    9   10 2  
    11    9   14 am 
    12   11   12 1  
    13   11   13 1  
    14   14   15 1  
    15   15   16 1  
    16   15   18 1  
    17   16   17 2  
    18   16   21 am 
    19   18   19 1  
    20   18   20 1  
    21   21   22 1  
    22   22   23 1  
    23   22   25 1  
    24   23   24 2  
    25   23   30 am 
    26   25   26 1  
    27   26   27 1  
    28   27   28 ar 
    29   27   29 ar 
    30   30   31 1  
    31   31   32 1  
    32   31   34 1  
    33   32   33 2  
    34   32   46 am 
    35   34   35 1  
    36   35   36 ar 
    37   35   37 ar 
    38   36   38 ar 
    39   37   39 ar 
    40   38   40 ar 
    41   39   40 ar 
    42   40   41 1  
    43   41   42 1  
    44   42   43 ar 
    45   42   44 ar 
    46   42   45 ar 
    47   46   47 1  
    48   47   48 1  
    49   47   50 1  
    50   48   49 2  
    51   48   52 am 
    52   50   51 1  
    53   52   53 1  
    54   53   54 1  
    55   53   56 1  
    56   54   55 2  
    57   54   59 am 
    58   56   57 1  
    59   56   58 1  
    60   59   60 1  
    61   60   61 1  
    62   60   63 1  
    63   61   62 2  
    64   61   66 am 
    65   63   64 1  
    66   63   65 1  
    67   66   67 1  
    68   67   68 1  
    69   67   70 1  
    70   68   69 2  
    71   68   73 am 
    72   70   71 1  
    73   70   72 1  
    74   73   74 1  
    75   74   75 1  
    76   74   77 1  
    77   75   76 2  
    78   75   83 am 
    79   77   78 1  
    80   78   79 1  
    81   78   80 2  
    82   79   81 2  
    83   80   82 1  
    84   81   82 1  
    85   83   84 1  
    86   84   85 1  
    87   84   87 1  
    88   85   86 ar 
    89   85   89 ar 
    90   87   88 1  
    91    1   90 1  
    92    1   91 1  
    93    1   92 1  
    94    2   93 1  
    95    5   94 1  
    96    5   95 1  
    97    6   96 1  
    98    7   97 1  
    99    8   98 1  
   100   11   99 1  
   101   12  100 1  
   102   13  101 1  
   103   13  102 1  
   104   13  103 1  
   105   14  104 1  
   106   15  105 1  
   107   18  106 1  
   108   19  107 1  
   109   19  108 1  
   110   19  109 1  
   111   20  110 1  
   112   20  111 1  
   113   20  112 1  
   114   21  113 1  
   115   22  114 1  
   116   25  115 1  
   117   25  116 1  
   118   26  117 1  
   119   26  118 1  
   120   30  119 1  
   121   31  120 1  
   122   34  121 1  
   123   34  122 1  
   124   36  123 1  
   125   37  124 1  
   126   38  125 1  
   127   39  126 1  
   128   46  127 1  
   129   47  128 1  
   130   50  129 1  
   131   50  130 1  
   132   51  131 1  
   133   52  132 1  
   134   53  133 1  
   135   56  134 1  
   136   57  135 1  
   137   58  136 1  
   138   58  137 1  
   139   58  138 1  
   140   59  139 1  
   141   60  140 1  
   142   63  141 1  
   143   64  142 1  
   144   64  143 1  
   145   64  144 1  
   146   65  145 1  
   147   65  146 1  
   148   65  147 1  
   149   66  148 1  
   150   67  149 1  
   151   70  150 1  
   152   71  151 1  
   153   71  152 1  
   154   71  153 1  
   155   72  154 1  
   156   72  155 1  
   157   72  156 1  
   158   73  157 1  
   159   74  158 1  
   160   77  159 1  
   161   77  160 1  
   162   80  161 1  
   163   81  162 1  
   164   82  163 1  
   165   83  164 1  
   166   84  165 1  
   167   87  166 1  
   168   87  167 1  
   169   88  168 1  
@<TRIPOS>SUBSTRUCTURE
     1 SER         1

