### 
### Created by X-TOOL on Fri Sep 26 17:34:50 2014
### 

@<TRIPOS>MOLECULE
2xzc_ligand
   37    39     1     0     0
SMALL
GAST_HUCK


@<TRIPOS>ATOM
      1 C1        -12.9060    1.5270    1.2920 C.ar      1 XOP        -0.0939
      2 C2        -11.8570    2.3170    1.6600 C.ar      1 XOP        -0.1743
      3 C3        -11.6670    3.6280    1.2630 C.ar      1 XOP        -0.1828
      4 C4        -12.5740    4.2430    0.4530 C.ar      1 XOP        -0.1974
      5 C5        -13.6250    3.4950    0.0220 C.ar      1 XOP        -0.1828
      6 C6        -13.8110    2.1620    0.4440 C.ar      1 XOP        -0.1743
      7 C7        -14.4720   -2.1070    1.1660 C.3       1 XOP         0.0885
      8 C8        -16.0110   -2.0160    1.0930 C.3       1 XOP        -0.0371
      9 C9        -16.5670   -2.1130   -0.3180 C.3       1 XOP        -0.0977
     10 N         -16.0610   -3.4150   -0.8790 N.4       1 XOP         0.4051
     11 O1        -11.7550   -0.7040    2.2020 O.co2     1 XOP        -0.5940
     12 O2        -13.7850   -0.8530    0.7600 O.3       1 XOP        -0.2802
     13 P         -13.0300   -0.0960    1.8690 P.3       1 XOP         0.1353
     14 C10       -15.9500   -1.1250   -1.3270 C.3       1 XOP        -0.0705
     15 C11       -14.6230   -1.7810   -1.8660 C.3       1 XOP        -0.0705
     16 C12       -14.6310   -3.1870   -1.2370 C.3       1 XOP        -0.0977
     17 C13       -13.8640   -3.0990    0.1120 C.3       1 XOP        -0.0371
     18 C14       -16.7630   -3.9470   -2.1260 C.3       1 XOP        -0.1248
     19 H         -11.1080    1.8798    2.3203 H         1 XOP         0.0042
     20 H         -10.7855    4.1732    1.6004 H         1 XOP         0.0198
     21 H         -12.4622    5.2879    0.1634 H         1 XOP        -0.0428
     22 H         -14.3431    3.9377   -0.6683 H         1 XOP         0.0198
     23 H         -14.6868    1.6136    0.0972 H         1 XOP         0.0042
     24 H         -14.3170   -2.3911    2.2068 H         1 XOP         0.0659
     25 H         -16.2973   -1.0413    1.4881 H         1 XOP         0.0277
     26 H         -16.4128   -2.8568    1.6584 H         1 XOP         0.0277
     27 H         -17.6415   -1.9571   -0.2216 H         1 XOP         0.0054
     28 H         -15.7395   -0.1683   -0.8489 H         1 XOP         0.0248
     29 H         -16.6423   -0.9290   -2.1458 H         1 XOP         0.0248
     30 H         -13.7358   -1.2087   -1.5951 H         1 XOP         0.0248
     31 H         -14.5864   -1.8122   -2.9549 H         1 XOP         0.0248
     32 H         -14.2023   -3.9481   -1.8890 H         1 XOP         0.0054
     33 H         -13.9039   -4.0923    0.5590 H         1 XOP         0.0277
     34 H         -12.8641   -2.7327   -0.1208 H         1 XOP         0.0277
     35 H         -17.8179   -4.1104   -1.9057 H         1 XOP        -0.0018
     36 H         -16.6673   -3.2206   -2.9330 H         1 XOP        -0.0018
     37 H         -16.3032   -4.8885   -2.4265 H         1 XOP        -0.0018
@<TRIPOS>BOND
     1    1    2 ar 
     2    1    6 ar 
     3   13    1 1  
     4    2    3 ar 
     5    3    4 ar 
     6    5    4 ar 
     7    6    5 ar 
     8    7    8 1  
     9   12    7 1  
    10    7   17 1  
    11    8    9 1  
    12    9   10 1  
    13    9   14 1  
    14   10   16 1  
    15   10   18 1  
    16   13   11 ar 
    17   12   13 1  
    18   14   15 1  
    19   15   16 1  
    20   16   17 1  
    21    2   19 1  
    22    3   20 1  
    23    4   21 1  
    24    5   22 1  
    25    6   23 1  
    26    7   24 1  
    27    8   25 1  
    28    8   26 1  
    29    9   27 1  
    30   14   28 1  
    31   14   29 1  
    32   15   30 1  
    33   15   31 1  
    34   16   32 1  
    35   17   33 1  
    36   17   34 1  
    37   18   35 1  
    38   18   36 1  
    39   18   37 1  
@<TRIPOS>SUBSTRUCTURE
     1 XOP         1

