### 
### Created by X-TOOL on Fri Sep 26 17:34:43 2014
### 

@<TRIPOS>MOLECULE
3a1s_ligand
   41    43     1     0     0
SMALL
GAST_HUCK


@<TRIPOS>ATOM
      1 PB         -3.9050   23.1290  -11.0400 P.3       1 GDP         0.2069
      2 O1B        -4.8640   21.9740  -11.1710 O.co2     1 GDP        -0.5891
      3 O2B        -3.4550   23.6370  -12.3870 O.co2     1 GDP        -0.5891
      4 O3B        -4.5030   24.2130  -10.1630 O.co2     1 GDP        -0.5891
      5 O3A        -2.6680   22.4780  -10.2230 O.3       1 GDP        -0.1548
      6 PA         -1.1010   22.7480  -10.2780 P.3       1 GDP         0.3276
      7 O1A        -0.4340   21.9870  -11.3900 O.co2     1 GDP        -0.5556
      8 O2A        -0.7870   24.2380  -10.3070 O.co2     1 GDP        -0.5556
      9 O5'        -0.6220   22.0650   -8.9200 O.3       1 GDP        -0.2436
     10 C5'        -1.1480   22.4440   -7.6480 C.3       1 GDP         0.1132
     11 C4'        -0.1630   22.0300   -6.5820 C.3       1 GDP         0.1190
     12 O4'         0.0950   20.6240   -6.7280 O.3       1 GDP        -0.3347
     13 C3'         1.1610   22.7310   -6.7630 C.3       1 GDP         0.1151
     14 O3'         1.7030   22.9330   -5.4570 O.3       1 GDP        -0.3864
     15 C2'         2.0120   21.7160   -7.4980 C.3       1 GDP         0.1407
     16 O2'         3.4030   21.8600   -7.2380 O.3       1 GDP        -0.3835
     17 C1'         1.4860   20.4230   -6.9120 C.3       1 GDP         0.2218
     18 N9          1.6140   19.3070   -7.8570 N.pl3     1 GDP        -0.0954
     19 C8          1.0420   19.2010   -9.0650 C.2       1 GDP         0.1855
     20 N7          1.3670   18.0150   -9.6470 N.2       1 GDP        -0.1929
     21 C5          2.1470   17.3600   -8.7700 C.2       1 GDP         0.2558
     22 C6          2.8360   16.0640   -8.7230 C.2       1 GDP         0.2628
     23 O6          2.7360   15.2950   -9.7010 O.2       1 GDP        -0.3594
     24 N1          3.5460   15.7770   -7.6210 N.am      1 GDP        -0.2478
     25 C2          3.6470   16.6050   -6.5640 C.cat     1 GDP         0.2041
     26 N2          4.3700   16.2520   -5.4760 N.pl3     1 GDP        -0.3327
     27 N3          3.0370   17.8140   -6.5390 N.pl3     1 GDP        -0.1901
     28 C4          2.3000   18.2100   -7.5890 C.2       1 GDP         0.3268
     29 H1         -2.1112   21.9403   -7.4794 H         1 GDP         0.0648
     30 H2         -1.2935   23.5338   -7.6160 H         1 GDP         0.0648
     31 H3         -0.5759   22.2496   -5.5864 H         1 GDP         0.0651
     32 H4          1.0692   23.6773   -7.3162 H         1 GDP         0.0648
     33 H5          2.5413   23.3742   -5.5280 H         1 GDP         0.2100
     34 H6          1.8404   21.7675   -8.5833 H         1 GDP         0.0677
     35 H7          3.5632   21.7507   -6.3080 H         1 GDP         0.2101
     36 H8          1.9951   20.1895   -5.9653 H         1 GDP         0.1021
     37 H9          0.4052   19.9595   -9.5178 H         1 GDP         0.1823
     38 H10         4.0261   14.9006   -7.5827 H         1 GDP         0.1819
     39 H11         4.4398   16.8940   -4.6736 H         1 GDP         0.1774
     40 H12         4.8505   15.3413   -5.4503 H         1 GDP         0.1774
     41 H13         3.1381   18.4272   -5.7176 H         1 GDP         0.2519
@<TRIPOS>BOND
     1    1    2 ar 
     2    1    3 ar 
     3    1    4 ar 
     4    1    5 1  
     5    5    6 1  
     6    6    7 ar 
     7    6    8 ar 
     8    6    9 1  
     9    9   10 1  
    10   10   11 1  
    11   11   12 1  
    12   11   13 1  
    13   12   17 1  
    14   13   14 1  
    15   13   15 1  
    16   15   16 1  
    17   15   17 1  
    18   17   18 1  
    19   18   19 1  
    20   18   28 1  
    21   19   20 2  
    22   20   21 1  
    23   21   22 1  
    24   21   28 2  
    25   22   23 2  
    26   22   24 am 
    27   24   25 ar 
    28   25   26 ar 
    29   25   27 ar 
    30   27   28 1  
    31   10   29 1  
    32   10   30 1  
    33   11   31 1  
    34   13   32 1  
    35   14   33 1  
    36   15   34 1  
    37   16   35 1  
    38   17   36 1  
    39   19   37 1  
    40   24   38 1  
    41   26   39 1  
    42   26   40 1  
    43   27   41 1  
@<TRIPOS>SUBSTRUCTURE
     1 GDP         1

