### 
### Created by X-TOOL on Fri Sep 26 17:34:42 2014
### 

@<TRIPOS>MOLECULE
3cph_ligand
   41    43     1     0     0
SMALL
GAST_HUCK


@<TRIPOS>ATOM
      1 PB         55.8240   19.1500    8.2690 P.3       1 GDP         0.2069
      2 O1B        55.2450   19.7770    9.5060 O.co2     1 GDP        -0.5891
      3 O2B        56.8460   18.0810    8.6000 O.co2     1 GDP        -0.5891
      4 O3B        54.6370   18.5920    7.5160 O.co2     1 GDP        -0.5891
      5 O3A        56.5280   20.3460    7.4560 O.3       1 GDP        -0.1548
      6 PA         58.0270   20.2280    6.8870 P.3       1 GDP         0.3276
      7 O1A        59.0590   20.2730    7.9890 O.co2     1 GDP        -0.5556
      8 O2A        58.1490   18.9400    6.1000 O.co2     1 GDP        -0.5556
      9 O5'        58.1970   21.5370    5.9560 O.3       1 GDP        -0.2436
     10 C5'        57.0570   22.2240    5.4150 C.3       1 GDP         0.1132
     11 C4'        57.4010   23.3570    4.4340 C.3       1 GDP         0.1190
     12 O4'        57.4280   24.6300    5.1040 O.3       1 GDP        -0.3347
     13 C3'        58.7550   23.1940    3.7620 C.3       1 GDP         0.1151
     14 O3'        58.6830   23.6310    2.4100 O.3       1 GDP        -0.3864
     15 C2'        59.6710   24.0950    4.5470 C.3       1 GDP         0.1407
     16 O2'        60.7310   24.6230    3.7450 O.3       1 GDP        -0.3835
     17 C1'        58.7450   25.1800    5.0800 C.3       1 GDP         0.2218
     18 N9         59.1590   25.5750    6.4380 N.pl3     1 GDP        -0.0954
     19 C8         59.3490   24.7780    7.5050 C.2       1 GDP         0.1855
     20 N7         59.7410   25.5010    8.5910 N.2       1 GDP        -0.1929
     21 C5         59.8070   26.7850    8.2150 C.2       1 GDP         0.2558
     22 C6         60.1520   28.0800    8.8490 C.2       1 GDP         0.2628
     23 O6         60.4900   28.1950   10.0490 O.2       1 GDP        -0.3594
     24 N1         60.0810   29.1610    8.0720 N.am      1 GDP        -0.2478
     25 C2         59.7180   29.1150    6.7680 C.cat     1 GDP         0.2041
     26 N2         59.6680   30.2670    6.0500 N.pl3     1 GDP        -0.3327
     27 N3         59.3930   27.9660    6.1300 N.pl3     1 GDP        -0.1901
     28 C4         59.4240   26.8080    6.7930 C.2       1 GDP         0.3268
     29 H1         56.4870   22.6550    6.2512 H         1 GDP         0.0648
     30 H2         56.4325   21.4893    4.8857 H         1 GDP         0.0648
     31 H3         56.6231   23.3747    3.6565 H         1 GDP         0.0651
     32 H4         59.0955   22.1488    3.8026 H         1 GDP         0.0648
     33 H5         59.5324   23.5259    1.9976 H         1 GDP         0.2100
     34 H6         60.1172   23.5390    5.3847 H         1 GDP         0.0677
     35 H7         61.2824   25.1836    4.2781 H         1 GDP         0.2101
     36 H8         58.7739   26.0588    4.4191 H         1 GDP         0.1021
     37 H9         59.2081   23.6982    7.5011 H         1 GDP         0.1823
     38 H10        60.3069   30.0494    8.4716 H         1 GDP         0.1819
     39 H11        59.3932   30.2438    5.0576 H         1 GDP         0.1774
     40 H12        59.9048   31.1637    6.4980 H         1 GDP         0.1774
     41 H13        59.1227   27.9854    5.1363 H         1 GDP         0.2519
@<TRIPOS>BOND
     1    1    2 ar 
     2    1    3 ar 
     3    1    4 ar 
     4    1    5 1  
     5    5    6 1  
     6    6    7 ar 
     7    6    8 ar 
     8    6    9 1  
     9    9   10 1  
    10   10   11 1  
    11   11   12 1  
    12   11   13 1  
    13   12   17 1  
    14   13   14 1  
    15   13   15 1  
    16   15   16 1  
    17   15   17 1  
    18   17   18 1  
    19   18   19 1  
    20   18   28 1  
    21   19   20 2  
    22   20   21 1  
    23   21   22 1  
    24   21   28 2  
    25   22   23 2  
    26   22   24 am 
    27   24   25 ar 
    28   25   26 ar 
    29   25   27 ar 
    30   27   28 1  
    31   10   29 1  
    32   10   30 1  
    33   11   31 1  
    34   13   32 1  
    35   14   33 1  
    36   15   34 1  
    37   16   35 1  
    38   17   36 1  
    39   19   37 1  
    40   24   38 1  
    41   26   39 1  
    42   26   40 1  
    43   27   41 1  
@<TRIPOS>SUBSTRUCTURE
     1 GDP         1

