### 
### Created by X-TOOL on Fri Sep 26 17:34:46 2014
### 

@<TRIPOS>MOLECULE
3d7m_ligand
   41    43     1     0     0
SMALL
GAST_HUCK


@<TRIPOS>ATOM
      1 PB        -22.8750   14.3050  -12.9890 P.3       1 GDP         0.2069
      2 O1B       -23.7490   15.1050  -12.1490 O.co2     1 GDP        -0.5891
      3 O2B       -23.0890   12.8640  -12.8230 O.co2     1 GDP        -0.5891
      4 O3B       -22.9110   14.8590  -14.3530 O.co2     1 GDP        -0.5891
      5 O3A       -21.3420   14.5140  -12.5100 O.3       1 GDP        -0.1548
      6 PA        -20.4090   13.7750  -11.4280 P.3       1 GDP         0.3276
      7 O1A       -21.2520   13.5490  -10.2270 O.co2     1 GDP        -0.5556
      8 O2A       -19.6170   12.6430  -12.1220 O.co2     1 GDP        -0.5556
      9 O5'       -19.4280   14.8640  -10.9370 O.3       1 GDP        -0.2436
     10 C5'       -18.3630   15.3490  -11.7440 C.3       1 GDP         0.1132
     11 C4'       -17.0840   15.4550  -11.0410 C.3       1 GDP         0.1190
     12 O4'       -17.1210   16.4730   -9.9860 O.3       1 GDP        -0.3347
     13 C3'       -16.6620   14.1590  -10.4040 C.3       1 GDP         0.1151
     14 O3'       -15.3030   13.9740  -10.6880 O.3       1 GDP        -0.3864
     15 C2'       -16.8770   14.4550   -8.8950 C.3       1 GDP         0.1407
     16 O2'       -15.9810   13.8100   -8.0320 O.3       1 GDP        -0.3835
     17 C1'       -16.7220   15.9350   -8.7300 C.3       1 GDP         0.2218
     18 N9        -17.6400   16.4340   -7.7520 N.pl3     1 GDP        -0.0954
     19 C8        -19.0200   16.2380   -7.5880 C.2       1 GDP         0.1855
     20 N7        -19.5720   16.8750   -6.5720 N.2       1 GDP        -0.1929
     21 C5        -18.4370   17.5330   -6.0180 C.2       1 GDP         0.2558
     22 C6        -18.3280   18.4420   -4.8920 C.2       1 GDP         0.2628
     23 O6        -19.2270   18.8010   -4.1350 O.2       1 GDP        -0.3594
     24 N1        -17.0130   18.9010   -4.6340 N.am      1 GDP        -0.2478
     25 C2        -15.8950   18.5590   -5.4250 C.cat     1 GDP         0.2041
     26 N2        -14.7040   19.0030   -5.1390 N.pl3     1 GDP        -0.3327
     27 N3        -16.0050   17.7540   -6.4960 N.pl3     1 GDP        -0.1901
     28 C4        -17.2830   17.2750   -6.7510 C.2       1 GDP         0.3268
     29 H1        -18.6373   16.3474  -12.1153 H         1 GDP         0.0648
     30 H2        -18.2342   14.6640  -12.5949 H         1 GDP         0.0648
     31 H3        -16.3220   15.7435  -11.7800 H         1 GDP         0.0651
     32 H4        -17.2579   13.3003  -10.7468 H         1 GDP         0.0648
     33 H5        -15.0058   13.1606  -10.2975 H         1 GDP         0.2100
     34 H6        -17.8978   14.1520   -8.6191 H         1 GDP         0.0677
     35 H7        -16.1821   14.0447   -7.1337 H         1 GDP         0.2101
     36 H8        -15.6874   16.2047   -8.4714 H         1 GDP         0.1021
     37 H9        -19.5983   15.6013   -8.2560 H         1 GDP         0.1823
     38 H10       -16.8685   19.5011   -3.8472 H         1 GDP         0.1819
     39 H11       -13.9014   18.7415   -5.7292 H         1 GDP         0.1774
     40 H12       -14.5650   19.6156   -4.3227 H         1 GDP         0.1774
     41 H13       -15.1972   17.5095   -7.0865 H         1 GDP         0.2519
@<TRIPOS>BOND
     1    1    2 ar 
     2    1    3 ar 
     3    1    4 ar 
     4    1    5 1  
     5    5    6 1  
     6    6    7 ar 
     7    6    8 ar 
     8    6    9 1  
     9    9   10 1  
    10   10   11 1  
    11   11   12 1  
    12   11   13 1  
    13   12   17 1  
    14   13   14 1  
    15   13   15 1  
    16   15   16 1  
    17   15   17 1  
    18   17   18 1  
    19   18   19 1  
    20   18   28 1  
    21   19   20 2  
    22   20   21 1  
    23   21   22 1  
    24   21   28 2  
    25   22   23 2  
    26   22   24 am 
    27   24   25 ar 
    28   25   26 ar 
    29   25   27 ar 
    30   27   28 1  
    31   10   29 1  
    32   10   30 1  
    33   11   31 1  
    34   13   32 1  
    35   14   33 1  
    36   15   34 1  
    37   16   35 1  
    38   17   36 1  
    39   19   37 1  
    40   24   38 1  
    41   26   39 1  
    42   26   40 1  
    43   27   41 1  
@<TRIPOS>SUBSTRUCTURE
     1 GDP         1

