### 
### Created by X-TOOL on Fri Sep 26 17:34:44 2014
### 

@<TRIPOS>MOLECULE
3dla_ligand
   68    72     1     0     0
SMALL
GAST_HUCK


@<TRIPOS>ATOM
      1 O7N       155.1570   75.7270   65.9380 O.co2     1 NXX        -0.2526
      2 C7N       154.2690   76.5890   66.1940 C.2       1 NXX         0.3830
      3 O8N       153.0570   76.3970   65.9080 O.co2     1 NXX        -0.2526
      4 C3N       154.6510   77.9050   66.8420 C.ar      1 NXX         0.1012
      5 C4N       155.1100   78.9430   66.0330 C.ar      1 NXX        -0.0228
      6 C5N       155.4550   80.1580   66.5980 C.ar      1 NXX        -0.0314
      7 C6N       155.3290   80.3000   67.9750 C.ar      1 NXX        -0.0007
      8 C2N       154.5530   78.1120   68.2280 C.ar      1 NXX         0.0162
      9 N1N       154.8870   79.2980   68.7740 N.ar      1 NXX        -0.3356
     10 C1M       154.7810   79.4980   70.2430 C.3       1 NXX         0.1491
     11 C2M       156.1030   80.0370   70.7750 C.3       1 NXX         0.1236
     12 O2M       156.3180   79.5910   72.1200 O.3       1 NXX        -0.3852
     13 C3M       155.8900   81.5390   70.7010 C.3       1 NXX         0.1134
     14 O3M       156.7520   82.2630   71.5770 O.3       1 NXX        -0.3864
     15 O4M       153.7860   80.4820   70.6090 O.3       1 NXX        -0.3498
     16 C4M       154.4140   81.6970   71.0380 C.3       1 NXX         0.1174
     17 C5M       153.8260   82.9150   70.3420 C.3       1 NXX         0.1127
     18 O5M       154.1210   84.0340   71.1780 O.3       1 NXX        -0.2476
     19 PN        153.1550   85.3070   71.3650 P.3       1 NXX         0.2972
     20 O1N       151.7420   84.8390   71.1050 O.co2     1 NXX        -0.6127
     21 O2N       153.4270   85.9090   72.7260 O.co2     1 NXX        -0.6127
     22 O3A       153.7630   86.3050   70.2170 O.3       1 NXX        -0.1319
     23 PA        153.1940   86.8670   68.7910 P.3       1 NXX         0.2972
     24 O1A       154.2520   87.6980   68.1090 O.co2     1 NXX        -0.6127
     25 O2A       152.6100   85.7670   67.9600 O.co2     1 NXX        -0.6127
     26 O5B       152.0280   87.8750   69.2520 O.3       1 NXX        -0.2476
     27 C5B       152.2670   88.8270   70.2740 C.3       1 NXX         0.1128
     28 C4B       152.5180   90.1540   69.5670 C.3       1 NXX         0.1189
     29 C3B       153.1890   91.1710   70.4790 C.3       1 NXX         0.1149
     30 O3B       153.8210   92.1490   69.6340 O.3       1 NXX        -0.3864
     31 C2B       152.0270   91.7910   71.2230 C.3       1 NXX         0.1385
     32 O2P       152.3600   93.1150   71.6440 O.3       1 NXX        -0.3836
     33 C1B       150.9560   91.8150   70.1310 C.3       1 NXX         0.2010
     34 O4B       151.2830   90.7640   69.1880 O.3       1 NXX        -0.3364
     35 N9A       149.5370   91.6980   70.5950 N.pl3     1 NXX        -0.1919
     36 C8A       149.0320   90.9910   71.6320 C.2       1 NXX         0.1123
     37 N7A       147.6870   91.1540   71.6560 N.2       1 NXX        -0.2958
     38 C5A       147.3560   91.9810   70.6160 C.ar      1 NXX         0.1045
     39 C4A       148.5320   92.3080   69.9500 C.ar      1 NXX         0.1613
     40 C6A       146.1590   92.5210   70.1130 C.ar      1 NXX         0.1298
     41 N6A       144.9670   92.2370   70.7020 N.pl3     1 NXX        -0.3152
     42 N1A       146.1940   93.3290   69.0100 N.ar      1 NXX        -0.2698
     43 C2A       147.3460   93.6240   68.3830 C.ar      1 NXX         0.0533
     44 N3A       148.5010   93.1220   68.8490 N.ar      1 NXX        -0.2714
     45 H1        155.1966   78.7986   64.9622 H         1 NXX         0.0774
     46 H2        155.8135   80.9762   65.9840 H         1 NXX         0.0718
     47 H3        155.5944   81.2486   68.4274 H         1 NXX         0.0831
     48 H4        154.2045   77.3080   68.8661 H         1 NXX         0.0848
     49 H5        154.5407   78.5351   70.7174 H         1 NXX         0.0801
     50 H6        156.9484   79.7248   70.1443 H         1 NXX         0.0660
     51 H7        157.1448   79.9344   72.4380 H         1 NXX         0.2101
     52 H8        156.0765   81.8926   69.6762 H         1 NXX         0.0647
     53 H9        156.5926   81.9904   72.4730 H         1 NXX         0.2100
     54 H10       154.2882   81.8165   72.1242 H         1 NXX         0.0650
     55 H11       152.7379   82.8007   70.2283 H         1 NXX         0.0648
     56 H12       154.2863   83.0473   69.3518 H         1 NXX         0.0648
     57 H13       153.1475   88.5379   70.8665 H         1 NXX         0.0648
     58 H14       151.3907   88.9062   70.9342 H         1 NXX         0.0648
     59 H15       153.1430   89.9726   68.6802 H         1 NXX         0.0651
     60 H16       153.9157   90.7095   71.1638 H         1 NXX         0.0648
     61 H17       154.2512   92.8016   70.1739 H         1 NXX         0.2100
     62 H18       151.7185   91.1851   72.0877 H         1 NXX         0.0676
     63 H19       152.5617   93.6467   70.8830 H         1 NXX         0.2101
     64 H20       151.0380   92.7822   69.6136 H         1 NXX         0.0996
     65 H21       149.6108   90.3901   72.3319 H         1 NXX         0.1349
     66 H22       144.0971   92.6388   70.3241 H         1 NXX         0.1820
     67 H23       144.9338   91.6201   71.5261 H         1 NXX         0.1820
     68 H24       147.3426   94.2628   67.5072 H         1 NXX         0.0996
@<TRIPOS>BOND
     1    1    2 ar 
     2    2    3 ar 
     3    2    4 1  
     4    4    5 ar 
     5    4    8 ar 
     6    5    6 ar 
     7    6    7 ar 
     8    7    9 ar 
     9    8    9 ar 
    10    9   10 1  
    11   10   11 1  
    12   10   15 1  
    13   11   12 1  
    14   11   13 1  
    15   13   14 1  
    16   13   16 1  
    17   15   16 1  
    18   16   17 1  
    19   17   18 1  
    20   18   19 1  
    21   19   20 ar 
    22   19   21 ar 
    23   19   22 1  
    24   22   23 1  
    25   23   24 ar 
    26   23   25 ar 
    27   23   26 1  
    28   26   27 1  
    29   27   28 1  
    30   28   29 1  
    31   28   34 1  
    32   29   30 1  
    33   29   31 1  
    34   31   32 1  
    35   31   33 1  
    36   33   34 1  
    37   33   35 1  
    38   35   36 1  
    39   35   39 1  
    40   36   37 2  
    41   37   38 1  
    42   38   39 ar 
    43   38   40 ar 
    44   39   44 ar 
    45   40   41 1  
    46   40   42 ar 
    47   42   43 ar 
    48   43   44 ar 
    49    5   45 1  
    50    6   46 1  
    51    7   47 1  
    52    8   48 1  
    53   10   49 1  
    54   11   50 1  
    55   12   51 1  
    56   13   52 1  
    57   14   53 1  
    58   16   54 1  
    59   17   55 1  
    60   17   56 1  
    61   27   57 1  
    62   27   58 1  
    63   28   59 1  
    64   29   60 1  
    65   30   61 1  
    66   31   62 1  
    67   32   63 1  
    68   33   64 1  
    69   36   65 1  
    70   41   66 1  
    71   41   67 1  
    72   43   68 1  
@<TRIPOS>SUBSTRUCTURE
     1 NXX         1

