### 
### Created by X-TOOL on Fri Sep 26 17:34:44 2014
### 

@<TRIPOS>MOLECULE
3fea_ligand
  154   158     1     0     0
SMALL
GAST_HUCK


@<TRIPOS>ATOM
      1 C          12.7410   24.3730    5.1550 C.2       1 ACE         0.1752
      2 O          13.8220   24.1170    5.6650 O.2       1 ACE        -0.3972
      3 CH3        12.0720   25.6920    5.4760 C.3       1 ACE         0.0258
      4 N          12.0730   23.5490    4.3210 N.am      1 ACE        -0.2640
      5 CA         12.5930   22.2240    3.9770 C.3       1 ACE         0.1404
      6 C          14.0020   22.2590    3.4340 C.2       1 ACE         0.2060
      7 O          14.8430   21.4850    3.9070 O.2       1 ACE        -0.3942
      8 CB         11.6380   21.4800    2.9980 C.3       1 ACE         0.0214
      9 CG         12.2710   20.1520    2.5590 C.ar      1 ACE        -0.0386
     10 CD1        12.2510   19.0600    3.4260 C.ar      1 ACE        -0.0601
     11 CD2        12.8920   20.0090    1.3140 C.ar      1 ACE        -0.0601
     12 CE1        12.8240   17.8410    3.0540 C.ar      1 ACE        -0.0686
     13 CE2        13.4780   18.7860    0.9490 C.ar      1 ACE        -0.0686
     14 CZ         13.4600   17.6890    1.8080 C.ar      1 ACE        -0.0687
     15 N          14.2580   23.1060    2.4400 N.am      1 ACE        -0.2636
     16 CA         15.5960   23.1080    1.8370 C.3       1 ACE         0.1314
     17 C          16.6900   23.4350    2.8110 C.2       1 ACE         0.2010
     18 O          17.7200   22.7520    2.7670 O.2       1 ACE        -0.3947
     19 CB         15.5500   24.1830    0.7360 C.3       1 ACE        -0.0034
     20 CG         16.4500   23.8500   -0.4820 C.3       1 ACE        -0.0024
     21 SD         15.4340   23.9460   -1.9910 S.3       1 ACE        -0.1639
     22 CE         14.9140   25.6950   -1.9650 C.3       1 ACE        -0.0181
     23 N          16.5020   24.4260    3.6910 N.am      1 ACE        -0.2745
     24 CA         17.5150   24.8050    4.6790 C.3       1 ACE         0.1274
     25 C          17.8570   23.5630    5.4780 C.2       1 ACE         0.2262
     26 O          19.0240   23.2750    5.7480 O.2       1 ACE        -0.3419
     27 CB1        16.8590   25.8020    5.6560 C.3       1 ACE        -0.0323
     28 CB2        18.7760   25.3920    3.9560 C.3       1 ACE        -0.0323
     29 N          16.8490   22.7770    5.9190 N.am      1 ACE        -0.2612
     30 CA         17.1310   21.5860    6.6770 C.3       1 ACE         0.1397
     31 CB         15.8290   20.9660    7.2520 C.3       1 ACE         0.0184
     32 CG         15.2160   21.7150    8.4210 C.ar      1 ACE        -0.0452
     33 CD1        13.9450   22.2720    8.2300 C.ar      1 ACE        -0.0666
     34 CE1        13.3100   22.9530    9.2870 C.ar      1 ACE        -0.0655
     35 CD2        15.8540   21.7690    9.6670 C.ar      1 ACE        -0.0666
     36 CE2        15.2100   22.4360   10.7330 C.ar      1 ACE        -0.0655
     37 CZ         13.9570   23.0400   10.5260 C.ar      1 ACE        -0.0334
     38 CH4        13.2560   23.7490   11.7040 C.3       1 ACE         0.0499
     39 P          13.7330   25.4730   11.7940 P.3       1 ACE         0.0688
     40 O1         15.1900   25.6780   12.0130 O.co2     1 ACE        -0.5608
     41 O2         13.1310   26.1120   10.4570 O.co2     1 ACE        -0.5608
     42 O3         12.8220   26.0610   12.9860 O.co2     1 ACE        -0.5608
     43 C          17.8150   20.5170    5.8400 C.2       1 ACE         0.2061
     44 O          18.8010   19.9170    6.2700 O.2       1 ACE        -0.3942
     45 N          17.3060   20.2500    4.6160 N.am      1 ACE        -0.2625
     46 CA         17.8740   19.1840    3.7920 C.3       1 ACE         0.1352
     47 CB         17.0420   19.0400    2.4700 C.3       1 ACE         0.0043
     48 CG         17.4590   17.8250    1.7200 C.2       1 ACE        -0.0416
     49 CD2        17.0320   16.4570    2.0670 C.ar      1 ACE        -0.0212
     50 CE3        16.2040   15.9090    3.0350 C.ar      1 ACE        -0.0742
     51 CE2        17.7150   15.6490    1.1430 C.ar      1 ACE         0.0608
     52 NE1        18.4610   16.4470    0.3330 N.pl3     1 ACE        -0.2889
     53 CD1        18.3280   17.7260    0.6820 C.2       1 ACE         0.0169
     54 CZ2        17.5410   14.2660    1.1870 C.ar      1 ACE        -0.0305
     55 CH2        16.6830   13.7610    2.1580 C.ar      1 ACE         0.0251
     56 CLL        16.4280   12.0610    2.2090 Cl        1 ACE        -0.0799
     57 CZ3        15.9890   14.5570    3.0820 C.ar      1 ACE        -0.0654
     58 C          19.3500   19.3990    3.4690 C.2       1 ACE         0.2052
     59 O          20.1450   18.4430    3.5190 O.2       1 ACE        -0.3942
     60 N          19.7000   20.6390    3.1590 N.am      1 ACE        -0.2635
     61 CA         21.0900   20.9750    2.8170 C.3       1 ACE         0.1322
     62 C          21.9960   20.7290    4.0080 C.2       1 ACE         0.2011
     63 O          23.2040   20.5800    3.7800 O.2       1 ACE        -0.3947
     64 CB         21.1720   22.4470    2.3880 C.3       1 ACE        -0.0008
     65 CG         20.5480   22.7030    0.9920 C.3       1 ACE         0.0044
     66 CD         20.7090   24.1470    0.5680 C.2       1 ACE         0.0350
     67 OE1        21.1530   25.0460    1.2850 O.co2     1 ACE        -0.5690
     68 OE2        20.3330   24.4180   -0.6730 O.co2     1 ACE        -0.5690
     69 CB         23.2930   21.5450    6.8340 C.3       1 ACE        -0.0184
     70 CG         21.9710   21.4560    7.6130 C.3       1 ACE        -0.0184
     71 CA         22.2490   20.4720    6.4600 C.3       1 ACE         0.1329
     72 C          22.5180   19.0460    6.7640 C.2       1 ACE         0.2266
     73 O          23.2070   18.7300    7.7450 O.2       1 ACE        -0.3419
     74 N          21.4760   20.6830    5.2410 N.am      1 ACE        -0.2740
     75 N          22.0290   18.0740    6.0260 N.am      1 ACE        -0.2629
     76 CA         22.2520   16.6700    6.3420 C.3       1 ACE         0.1310
     77 C          23.7250   16.3050    6.3210 C.2       1 ACE         0.1993
     78 O          24.4430   16.6200    5.3690 O.2       1 ACE        -0.3947
     79 CB         21.4710   15.7640    5.3310 C.3       1 ACE        -0.0099
     80 CG         20.0490   15.4460    5.8510 C.3       1 ACE        -0.0425
     81 CD1        19.1880   14.9110    4.6740 C.3       1 ACE        -0.0625
     82 CD2        20.0740   14.3920    6.9720 C.3       1 ACE        -0.0625
     83 N          24.1860   15.5850    7.3650 N.am      1 ACE        -0.2990
     84 H1         11.1154   25.7587    4.9370 H         1 ACE         0.0467
     85 H2         12.7262   26.5201    5.1656 H         1 ACE         0.0467
     86 H3         11.8880   25.7560    6.5586 H         1 ACE         0.0467
     87 H4         11.2035   23.8498    3.9291 H         1 ACE         0.1884
     88 H5         12.6239   21.6416    4.9097 H         1 ACE         0.0823
     89 H6         11.4599   22.1092    2.1134 H         1 ACE         0.0474
     90 H7         10.6819   21.2788    3.5034 H         1 ACE         0.0474
     91 H8         11.7855   19.1579    4.4000 H         1 ACE         0.0557
     92 H9         12.9212   20.8469    0.6269 H         1 ACE         0.0557
     93 H10        12.7778   16.9995    3.7358 H         1 ACE         0.0599
     94 H11        13.9539   18.6936   -0.0205 H         1 ACE         0.0599
     95 H12        13.9208   16.7493    1.5257 H         1 ACE         0.0559
     96 H13        13.5505   23.7307    2.1095 H         1 ACE         0.1883
     97 H14        15.8004   22.1209    1.3967 H         1 ACE         0.0800
     98 H15        15.8841   25.1386    1.1664 H         1 ACE         0.0320
     99 H16        14.5116   24.2812    0.3867 H         1 ACE         0.0320
    100 H17        16.8602   22.8351   -0.3744 H         1 ACE         0.0378
    101 H18        17.2754   24.5746   -0.5432 H         1 ACE         0.0378
    102 H19        14.2791   25.9018   -2.8391 H         1 ACE         0.0340
    103 H20        15.8028   26.3423   -1.9962 H         1 ACE         0.0340
    104 H21        14.3466   25.8952   -1.0441 H         1 ACE         0.0340
    105 H22        15.6367   24.9269    3.6733 H         1 ACE         0.1839
    106 H23        17.5938   26.1092    6.4147 H         1 ACE         0.0242
    107 H24        16.0015   25.3214    6.1496 H         1 ACE         0.0242
    108 H25        16.5139   26.6865    5.1006 H         1 ACE         0.0242
    109 H26        19.5304   25.6735    4.7054 H         1 ACE         0.0242
    110 H27        18.4858   26.2806    3.3763 H         1 ACE         0.0242
    111 H28        19.1967   24.6338    3.2791 H         1 ACE         0.0242
    112 H29        15.9014   23.0246    5.7173 H         1 ACE         0.1891
    113 H30        17.7946   21.8615    7.5099 H         1 ACE         0.0824
    114 H31        16.0581   19.9433    7.5861 H         1 ACE         0.0461
    115 H32        15.0840   20.9294    6.4435 H         1 ACE         0.0461
    116 H33        13.4506   22.1791    7.2698 H         1 ACE         0.0540
    117 H34        12.3345   23.4033    9.1434 H         1 ACE         0.0540
    118 H35        16.8242   21.3074    9.8106 H         1 ACE         0.0540
    119 H36        15.6807   22.4821   11.7084 H         1 ACE         0.0540
    120 H37        13.5367   23.2491   12.6428 H         1 ACE         0.0600
    121 H38        12.1667   23.6843   11.5655 H         1 ACE         0.0600
    122 H39        16.5351   20.7858    4.2717 H         1 ACE         0.1884
    123 H40        17.7907   18.2436    4.3565 H         1 ACE         0.0815
    124 H41        17.2059   19.9273    1.8409 H         1 ACE         0.0397
    125 H42        15.9741   18.9610    2.7215 H         1 ACE         0.0397
    126 H43        15.7232   16.5556    3.7601 H         1 ACE         0.0541
    127 H44        19.0479   16.1093   -0.4432 H         1 ACE         0.2216
    128 H45        18.8380   18.5631    0.2075 H         1 ACE         0.0797
    129 H46        18.0540   13.6109    0.4922 H         1 ACE         0.0547
    130 H47        15.3096   14.1193    3.8044 H         1 ACE         0.0515
    131 H48        19.0062   21.3592    3.1576 H         1 ACE         0.1883
    132 H49        21.4178   20.3387    1.9818 H         1 ACE         0.0801
    133 H50        22.2301   22.7462    2.3599 H         1 ACE         0.0330
    134 H51        20.6374   23.0592    3.1292 H         1 ACE         0.0330
    135 H52        19.4761   22.4591    1.0296 H         1 ACE         0.0433
    136 H53        21.0455   22.0564    0.2542 H         1 ACE         0.0433
    137 H54        24.2364   21.2497    7.3164 H         1 ACE         0.0276
    138 H55        23.4767   22.3928    6.1576 H         1 ACE         0.0276
    139 H56        21.2093   22.2406    7.4942 H         1 ACE         0.0276
    140 H57        21.9690   21.0975    8.6529 H         1 ACE         0.0276
    141 H58        20.4873   20.8017    5.3328 H         1 ACE         0.1839
    142 H59        21.4851   18.3068    5.2198 H         1 ACE         0.1889
    143 H60        21.8656   16.4812    7.3544 H         1 ACE         0.0802
    144 H61        22.0220   14.8220    5.1931 H         1 ACE         0.0315
    145 H62        21.3921   16.2872    4.3666 H         1 ACE         0.0315
    146 H63        19.5989   16.3703    6.2423 H         1 ACE         0.0298
    147 H64        18.1746   14.6823    5.0354 H         1 ACE         0.0232
    148 H65        19.6477   13.9974    4.2690 H         1 ACE         0.0232
    149 H66        19.1319   15.6744    3.8841 H         1 ACE         0.0232
    150 H67        20.6820   14.7628    7.8104 H         1 ACE         0.0232
    151 H68        20.5101   13.4582    6.5876 H         1 ACE         0.0232
    152 H69        19.0478   14.2017    7.3194 H         1 ACE         0.0232
    153 H70        25.1488   15.3174    7.4016 H         1 ACE         0.1815
    154 H71        23.5648   15.3190    8.1021 H         1 ACE         0.1815
@<TRIPOS>BOND
     1    1    2 2  
     2    1    3 1  
     3    4    1 am 
     4    5    4 1  
     5    6    5 1  
     6    5    8 1  
     7    6    7 2  
     8   15    6 am 
     9    8    9 1  
    10    9   10 ar 
    11    9   11 ar 
    12   10   12 ar 
    13   11   13 ar 
    14   12   14 ar 
    15   13   14 ar 
    16   16   15 1  
    17   17   16 1  
    18   16   19 1  
    19   17   18 2  
    20   23   17 am 
    21   19   20 1  
    22   20   21 1  
    23   21   22 1  
    24   24   23 1  
    25   25   24 1  
    26   24   27 1  
    27   24   28 1  
    28   25   26 2  
    29   29   25 am 
    30   30   29 1  
    31   30   31 1  
    32   43   30 1  
    33   31   32 1  
    34   32   33 ar 
    35   32   35 ar 
    36   33   34 ar 
    37   34   37 ar 
    38   35   36 ar 
    39   36   37 ar 
    40   37   38 1  
    41   38   39 1  
    42   39   40 ar 
    43   39   41 ar 
    44   39   42 ar 
    45   43   44 2  
    46   45   43 am 
    47   46   45 1  
    48   46   47 1  
    49   58   46 1  
    50   47   48 1  
    51   48   49 1  
    52   48   53 2  
    53   49   50 ar 
    54   49   51 ar 
    55   50   57 ar 
    56   52   51 1  
    57   51   54 ar 
    58   53   52 1  
    59   54   55 ar 
    60   55   56 1  
    61   57   55 ar 
    62   58   59 2  
    63   60   58 am 
    64   61   60 1  
    65   62   61 1  
    66   61   64 1  
    67   62   63 2  
    68   74   62 am 
    69   64   65 1  
    70   65   66 1  
    71   66   67 ar 
    72   66   68 ar 
    73   70   69 1  
    74   71   69 1  
    75   71   70 1  
    76   71   72 1  
    77   71   74 1  
    78   72   73 2  
    79   72   75 am 
    80   75   76 1  
    81   76   77 1  
    82   76   79 1  
    83   77   78 2  
    84   77   83 am 
    85   79   80 1  
    86   80   81 1  
    87   80   82 1  
    88    3   84 1  
    89    3   85 1  
    90    3   86 1  
    91    4   87 1  
    92    5   88 1  
    93    8   89 1  
    94    8   90 1  
    95   10   91 1  
    96   11   92 1  
    97   12   93 1  
    98   13   94 1  
    99   14   95 1  
   100   15   96 1  
   101   16   97 1  
   102   19   98 1  
   103   19   99 1  
   104   20  100 1  
   105   20  101 1  
   106   22  102 1  
   107   22  103 1  
   108   22  104 1  
   109   23  105 1  
   110   27  106 1  
   111   27  107 1  
   112   27  108 1  
   113   28  109 1  
   114   28  110 1  
   115   28  111 1  
   116   29  112 1  
   117   30  113 1  
   118   31  114 1  
   119   31  115 1  
   120   33  116 1  
   121   34  117 1  
   122   35  118 1  
   123   36  119 1  
   124   38  120 1  
   125   38  121 1  
   126   45  122 1  
   127   46  123 1  
   128   47  124 1  
   129   47  125 1  
   130   50  126 1  
   131   52  127 1  
   132   53  128 1  
   133   54  129 1  
   134   57  130 1  
   135   60  131 1  
   136   61  132 1  
   137   64  133 1  
   138   64  134 1  
   139   65  135 1  
   140   65  136 1  
   141   69  137 1  
   142   69  138 1  
   143   70  139 1  
   144   70  140 1  
   145   74  141 1  
   146   75  142 1  
   147   76  143 1  
   148   79  144 1  
   149   79  145 1  
   150   80  146 1  
   151   81  147 1  
   152   81  148 1  
   153   81  149 1  
   154   82  150 1  
   155   82  151 1  
   156   82  152 1  
   157   83  153 1  
   158   83  154 1  
@<TRIPOS>SUBSTRUCTURE
     1 ACE         1

