### 
### Created by X-TOOL on Fri Sep 26 17:34:46 2014
### 

@<TRIPOS>MOLECULE
3kwn_ligand
   85    89     1     0     0
SMALL
GAST_HUCK


@<TRIPOS>ATOM
      1 C1          8.6150   -6.6000   12.0190 C.2       1 MOL         0.1765
      2 O2          8.8840   -6.6780   10.8260 O.2       1 MOL        -0.3971
      3 N3          8.2000   -5.4550   12.5800 N.am      1 MOL        -0.2668
      4 C4          8.0270   -5.2380   14.0230 C.3       1 MOL         0.0467
      5 C5          6.5280   -5.2800   14.3560 C.3       1 MOL         0.0262
      6 C6          5.7850   -4.4230   13.3500 C.2       1 MOL         0.0766
      7 C7          6.4090   -3.9680   12.1040 C.2       1 MOL         0.0057
      8 C8          7.8290   -4.3110   11.7420 C.3       1 MOL         0.0526
      9 C9          5.3780   -3.1570   11.4020 C.2       1 MOL         0.0531
     10 N10         4.2640   -3.1500   12.1810 N.2       1 MOL        -0.2092
     11 N11         4.5330   -3.9310   13.3220 N.pl3     1 MOL        -0.2012
     12 C12         3.4170   -3.9560   14.2550 C.3       1 MOL         0.0946
     13 C13         3.5120   -2.5620   14.8990 C.3       1 MOL         0.0663
     14 O14         4.5120   -2.6050   15.9280 O.3       1 MOL        -0.3909
     15 C15         2.1480   -2.0820   15.3850 C.3       1 MOL        -0.0836
     16 N16         2.3000   -0.8220   16.1140 N.4       1 MOL         0.4047
     17 C17         2.3300   -0.8640   17.5730 C.3       1 MOL        -0.1126
     18 C18         1.3870    0.2090   18.1070 C.3       1 MOL        -0.0664
     19 C19         1.5490    1.6080   17.4740 C.3       1 MOL        -0.0163
     20 C20         2.6490    1.5730   16.4120 C.3       1 MOL        -0.0664
     21 C21         2.4050    0.4460   15.3980 C.3       1 MOL        -0.1126
     22 C22         1.6960    2.7460   18.5180 C.3       1 MOL         0.0632
     23 C23         5.5660   -2.4790   10.0910 C.ar      1 MOL         0.0048
     24 C24         4.5820   -2.5630    9.1080 C.ar      1 MOL        -0.0340
     25 C25         4.7570   -1.9450    7.8830 C.ar      1 MOL        -0.0399
     26 C26         5.9060   -1.2130    7.6140 C.ar      1 MOL         0.0516
     27 C27         6.9650   -1.1210    8.6560 C.ar      1 MOL         0.0494
     28 C28         6.7360   -1.7560    9.8740 C.ar      1 MOL        -0.0147
     29 S29         8.4140   -0.2390    8.4470 S.3       1 MOL        -0.0528
     30 C30         8.2480    0.9470    9.7320 C.3       1 MOL         0.1215
     31 C31         9.4540    1.8280    9.9670 C.2       1 MOL         0.2666
     32 O32        10.4140    1.8130    9.1930 O.2       1 MOL        -0.3519
     33 N33         9.3720    2.6270   11.0430 N.am      1 MOL        -0.1959
     34 C34         8.3410    2.4900   12.0740 C.2       1 MOL         0.0410
     35 C35         8.4940    3.7150   12.9590 C.2       1 MOL        -0.0900
     36 C36         9.6580    4.5220   12.4240 C.2       1 MOL        -0.0900
     37 C37        10.2990    3.7280   11.2830 C.2       1 MOL         0.0410
     38 C38         6.0780   -0.5660    6.2660 C.3       1 MOL         0.3625
     39 F39         7.1970   -1.0070    5.7370 F         1 MOL        -0.2349
     40 F40         5.0720   -0.8970    5.4990 F         1 MOL        -0.2349
     41 F41         6.1450    0.7320    6.3390 F         1 MOL        -0.2349
     42 O42         1.5490    4.0270   17.8820 O.3       1 MOL        -0.3888
     43 C43         8.7060   -7.8210   12.8940 C.3       1 MOL         0.0259
     44 C44         3.0600    2.8100   19.2040 C.3       1 MOL        -0.0361
     45 C45         0.5700    2.6560   19.5570 C.3       1 MOL        -0.0361
     46 H           8.4395   -4.2684   14.3020 H         1 MOL         0.0547
     47 H           8.5498   -6.0168   14.5781 H         1 MOL         0.0547
     48 H           6.3608   -4.8990   15.3635 H         1 MOL         0.0469
     49 H           6.1658   -6.3069   14.3081 H         1 MOL         0.0469
     50 H           7.9166   -4.5548   10.6832 H         1 MOL         0.0599
     51 H           8.4940   -3.4649   11.9154 H         1 MOL         0.0599
     52 H           3.4740   -4.7711   14.9765 H         1 MOL         0.0664
     53 H           2.4566   -4.1473   13.7763 H         1 MOL         0.0664
     54 H           3.8215   -1.8203   14.1627 H         1 MOL         0.0602
     55 H           4.5830   -1.7408   16.3399 H         1 MOL         0.2098
     56 H           1.7153   -2.8325   16.0466 H         1 MOL         0.0043
     57 H           1.4929   -1.9269   14.5278 H         1 MOL         0.0043
     58 H           3.3434   -0.6801   17.9299 H         1 MOL         0.0017
     59 H           2.0130   -1.8462   17.9237 H         1 MOL         0.0017
     60 H           1.6107    0.3198   19.1680 H         1 MOL         0.0249
     61 H           0.3750   -0.1224   17.8745 H         1 MOL         0.0249
     62 H           0.6198    1.8640   16.9649 H         1 MOL         0.0327
     63 H           3.6044    1.3962   16.9060 H         1 MOL         0.0249
     64 H           2.6507    2.5249   15.8809 H         1 MOL         0.0249
     65 H           1.4819    0.6370   14.8508 H         1 MOL         0.0017
     66 H           3.2333    0.4017   14.6909 H         1 MOL         0.0017
     67 H           3.6665   -3.1205    9.3061 H         1 MOL         0.0645
     68 H           3.9839   -2.0336    7.1198 H         1 MOL         0.0806
     69 H           7.4811   -1.6863   10.6665 H         1 MOL         0.0625
     70 H           8.0903    0.3857   10.6530 H         1 MOL         0.0674
     71 H           7.4332    1.6091    9.4390 H         1 MOL         0.0674
     72 H           7.6181    1.6815   12.1830 H         1 MOL         0.0802
     73 H           7.8779    3.9672   13.8221 H         1 MOL         0.0232
     74 H           9.9825    5.4970   12.7875 H         1 MOL         0.0232
     75 H          11.2358    3.9376   10.7667 H         1 MOL         0.0802
     76 H           1.6420    4.7214   18.5383 H         1 MOL         0.2101
     77 H           8.0255   -8.5860   12.5200 H         1 MOL         0.0467
     78 H           9.7271   -8.2022   12.8786 H         1 MOL         0.0467
     79 H           8.4311   -7.5561   13.9150 H         1 MOL         0.0467
     80 H           3.2453    1.8732   19.7295 H         1 MOL         0.0257
     81 H           3.8354    2.9670   18.4542 H         1 MOL         0.0257
     82 H           3.0688    3.6353   19.9159 H         1 MOL         0.0257
     83 H          -0.3934    2.7511   19.0560 H         1 MOL         0.0257
     84 H           0.6229    1.6935   20.0658 H         1 MOL         0.0257
     85 H           0.6836    3.4597   20.2845 H         1 MOL         0.0257
@<TRIPOS>BOND
     1    1    2 2  
     2    1    3 am 
     3    1   43 1  
     4    3    4 1  
     5    3    8 1  
     6    4    5 1  
     7    5    6 1  
     8    6    7 2  
     9    6   11 1  
    10    7    8 1  
    11    7    9 1  
    12    9   10 2  
    13    9   23 1  
    14   10   11 1  
    15   11   12 1  
    16   12   13 1  
    17   13   14 1  
    18   13   15 1  
    19   15   16 1  
    20   16   17 1  
    21   16   21 1  
    22   17   18 1  
    23   18   19 1  
    24   19   20 1  
    25   19   22 1  
    26   20   21 1  
    27   22   42 1  
    28   22   44 1  
    29   22   45 1  
    30   23   24 ar 
    31   23   28 ar 
    32   24   25 ar 
    33   25   26 ar 
    34   26   27 ar 
    35   26   38 1  
    36   27   28 ar 
    37   27   29 1  
    38   29   30 1  
    39   30   31 1  
    40   31   32 2  
    41   31   33 am 
    42   33   34 1  
    43   33   37 1  
    44   34   35 2  
    45   35   36 1  
    46   36   37 2  
    47   38   39 1  
    48   38   40 1  
    49   38   41 1  
    50    4   46 1  
    51    4   47 1  
    52    5   48 1  
    53    5   49 1  
    54    8   50 1  
    55    8   51 1  
    56   12   52 1  
    57   12   53 1  
    58   13   54 1  
    59   14   55 1  
    60   15   56 1  
    61   15   57 1  
    62   17   58 1  
    63   17   59 1  
    64   18   60 1  
    65   18   61 1  
    66   19   62 1  
    67   20   63 1  
    68   20   64 1  
    69   21   65 1  
    70   21   66 1  
    71   24   67 1  
    72   25   68 1  
    73   28   69 1  
    74   30   70 1  
    75   30   71 1  
    76   34   72 1  
    77   35   73 1  
    78   36   74 1  
    79   37   75 1  
    80   42   76 1  
    81   43   77 1  
    82   43   78 1  
    83   43   79 1  
    84   44   80 1  
    85   44   81 1  
    86   44   82 1  
    87   45   83 1  
    88   45   84 1  
    89   45   85 1  
@<TRIPOS>SUBSTRUCTURE
     1 MOL         1

