### 
### Created by X-TOOL on Fri Sep 26 17:34:47 2014
### 

@<TRIPOS>MOLECULE
3kyg_ligand
   37    39     1     0     0
SMALL
GAST_HUCK


@<TRIPOS>ATOM
      1 P           5.4860  -15.3530  -12.7960 P.3       1 MOL         0.1064
      2 O1P         4.8020  -14.7520  -13.9690 O.co2     1 MOL        -0.6222
      3 O2P         4.7190  -16.4980  -12.2460 O.co2     1 MOL        -0.6222
      4 O5'         5.6240  -14.2990  -11.6020 O.3       1 MOL        -0.2803
      5 C5'         6.0630  -12.9710  -11.9090 C.3       1 MOL         0.1104
      6 C4'         6.3100  -12.1800  -10.6240 C.3       1 MOL         0.1191
      7 O4'         5.1140  -12.0850   -9.8340 O.3       1 MOL        -0.3347
      8 C3'         7.3070  -12.9260   -9.7390 C.3       1 MOL         0.1151
      9 O3'         8.6320  -12.6230  -10.1860 O.3       1 MOL        -0.3864
     10 C2'         7.0270  -12.1900   -8.4300 C.3       1 MOL         0.1407
     11 O2'         7.5460  -10.8590   -8.4920 O.3       1 MOL        -0.3835
     12 C1'         5.4980  -12.1380   -8.4500 C.3       1 MOL         0.2218
     13 N9          4.9130  -13.3710   -7.8840 N.pl3     1 MOL        -0.0954
     14 C8          4.3970  -14.4020   -8.5520 C.2       1 MOL         0.1855
     15 N7          3.8980  -15.2800   -7.6840 N.2       1 MOL        -0.1929
     16 C5          4.0960  -14.8080   -6.4540 C.2       1 MOL         0.2558
     17 C6          3.7390  -15.2440   -5.1850 C.2       1 MOL         0.2628
     18 O6          3.1760  -16.3260   -5.0240 O.2       1 MOL        -0.3594
     19 N1          4.0440  -14.4430   -4.0780 N.am      1 MOL        -0.2478
     20 C2          4.7140  -13.2280   -4.2760 C.cat     1 MOL         0.2041
     21 N2          5.0440  -12.4640   -3.2380 N.pl3     1 MOL        -0.3327
     22 N3          5.0460  -12.8400   -5.5140 N.pl3     1 MOL        -0.1901
     23 C4          4.7510  -13.5900   -6.5850 C.2       1 MOL         0.3268
     24 H1          6.4012  -15.6642  -13.0818 H         1 MOL         0.1780
     25 H2          5.2904  -12.4626  -12.5045 H         1 MOL         0.0650
     26 H3          6.9970  -13.0228  -12.4877 H         1 MOL         0.0650
     27 H4          6.6859  -11.1774  -10.8760 H         1 MOL         0.0651
     28 H5          7.1336  -14.0109   -9.6847 H         1 MOL         0.0648
     29 H6          8.7802  -11.6867  -10.1222 H         1 MOL         0.2100
     30 H7          7.4223  -12.7240   -7.5533 H         1 MOL         0.0677
     31 H8          8.4844  -10.8926   -8.6362 H         1 MOL         0.2101
     32 H9          5.1359  -11.2565   -7.9005 H         1 MOL         0.1021
     33 H10         4.3852  -14.5095   -9.6356 H         1 MOL         0.1823
     34 H11         3.7868  -14.7344   -3.1566 H         1 MOL         0.1819
     35 H12         5.5363  -11.5723   -3.3908 H         1 MOL         0.1774
     36 H13         4.8072  -12.7643   -2.2816 H         1 MOL         0.1774
     37 H14         5.5390  -11.9453   -5.6461 H         1 MOL         0.2519
@<TRIPOS>BOND
     1    1    2 ar 
     2    1    3 ar 
     3    1    4 1  
     4    4    5 1  
     5    5    6 1  
     6    6    7 1  
     7    6    8 1  
     8    7   12 1  
     9    8    9 1  
    10    8   10 1  
    11   10   11 1  
    12   10   12 1  
    13   12   13 1  
    14   13   14 1  
    15   13   23 1  
    16   14   15 2  
    17   15   16 1  
    18   16   17 1  
    19   16   23 2  
    20   17   18 2  
    21   17   19 am 
    22   19   20 ar 
    23   20   21 ar 
    24   20   22 ar 
    25   22   23 1  
    26    1   24 1  
    27    5   25 1  
    28    5   26 1  
    29    6   27 1  
    30    8   28 1  
    31    9   29 1  
    32   10   30 1  
    33   11   31 1  
    34   12   32 1  
    35   14   33 1  
    36   19   34 1  
    37   21   35 1  
    38   21   36 1  
    39   22   37 1  
@<TRIPOS>SUBSTRUCTURE
     1 MOL         1

