### 
### Created by X-TOOL on Fri Sep 26 17:34:50 2014
### 

@<TRIPOS>MOLECULE
3q72_ligand
   46    48     1     0     0
SMALL
GAST_HUCK


@<TRIPOS>ATOM
      1 PG         -5.1250   -3.0910   -0.9780 P.3       1 GNP         0.1803
      2 O1G        -4.1650   -2.8370    0.1660 O.co2     1 GNP        -0.5454
      3 O2G        -6.5440   -3.2810   -0.5090 O.co2     1 GNP        -0.5454
      4 O3G        -4.5360   -4.2360   -1.7610 O.co2     1 GNP        -0.5454
      5 N3B        -5.1500   -1.8640   -2.0010 N.am      1 GNP        -0.1803
      6 PB         -3.8800   -1.1130   -2.6210 P.3       1 GNP         0.2543
      7 O1B        -3.3110   -0.1630   -1.6390 O.co2     1 GNP        -0.6257
      8 O2B        -2.9370   -2.1020   -3.1550 O.co2     1 GNP        -0.6257
      9 O3A        -4.4050   -0.2300   -3.7510 O.3       1 GNP        -0.1431
     10 PA         -4.4130   -0.5120   -5.2550 P.3       1 GNP         0.2949
     11 O1A        -4.9390   -1.8740   -5.4650 O.co2     1 GNP        -0.6129
     12 O2A        -3.1260   -0.1570   -5.8690 O.co2     1 GNP        -0.6129
     13 O5'        -5.4510    0.4920   -5.8510 O.3       1 GNP        -0.2478
     14 C5'        -6.7550    0.5460   -5.3190 C.3       1 GNP         0.1128
     15 C4'        -7.6960    1.1200   -6.3600 C.3       1 GNP         0.1190
     16 O4'        -7.4160    2.5390   -6.5210 O.3       1 GNP        -0.3347
     17 C3'        -7.5410    0.4870   -7.7330 C.3       1 GNP         0.1151
     18 O3'        -8.8370    0.1900   -8.2500 O.3       1 GNP        -0.3864
     19 C2'        -6.7480    1.5250   -8.5480 C.3       1 GNP         0.1407
     20 O2'        -7.0940    1.6180   -9.9230 O.3       1 GNP        -0.3835
     21 C1'        -7.0780    2.8470   -7.8580 C.3       1 GNP         0.2218
     22 N9         -5.9770    3.8120   -7.8500 N.pl3     1 GNP        -0.0954
     23 C8         -4.7150    3.6330   -7.3470 C.2       1 GNP         0.1855
     24 N7         -3.9520    4.6770   -7.4890 N.2       1 GNP        -0.1929
     25 C5         -4.7520    5.6080   -8.1280 C.2       1 GNP         0.2558
     26 C6         -4.4670    6.9310   -8.5420 C.2       1 GNP         0.2628
     27 O6         -3.4180    7.5670   -8.4240 O.2       1 GNP        -0.3594
     28 N1         -5.5530    7.5240   -9.1600 N.am      1 GNP        -0.2478
     29 C2         -6.7670    6.9130   -9.3520 C.cat     1 GNP         0.2041
     30 N2         -7.7060    7.6380   -9.9710 N.pl3     1 GNP        -0.3327
     31 N3         -7.0500    5.6800   -8.9630 N.pl3     1 GNP        -0.1901
     32 C4         -6.0000    5.0860   -8.3600 C.2       1 GNP         0.3268
     33 H          -6.0682   -1.5250   -2.2880 H         1 GNP         0.2132
     34 H          -6.7617    1.1791   -4.4317 H         1 GNP         0.0648
     35 H          -7.0803   -0.4580   -5.0464 H         1 GNP         0.0648
     36 H          -8.7051    0.9215   -5.9989 H         1 GNP         0.0651
     37 H          -7.0075   -0.4634   -7.7455 H         1 GNP         0.0648
     38 H          -8.7499   -0.2107   -9.1180 H         1 GNP         0.2100
     39 H          -5.6941    1.2473   -8.5625 H         1 GNP         0.0677
     40 H          -8.0196    1.8599  -10.0033 H         1 GNP         0.2101
     41 H          -7.8883    3.3188   -8.4137 H         1 GNP         0.1021
     42 H          -4.3835    2.7081   -6.8750 H         1 GNP         0.1823
     43 H          -5.4443    8.4809   -9.4961 H         1 GNP         0.1819
     44 H          -7.4992    8.5905  -10.2716 H         1 GNP         0.1774
     45 H          -8.6286    7.2381  -10.1422 H         1 GNP         0.1774
     46 H          -7.9555    5.2318   -9.1028 H         1 GNP         0.2519
@<TRIPOS>BOND
     1    1    2 ar 
     2    1    3 ar 
     3    1    4 ar 
     4    1    5 am 
     5    5    6 1  
     6    6    7 ar 
     7    6    8 ar 
     8    6    9 1  
     9    9   10 1  
    10   10   11 ar 
    11   10   12 ar 
    12   10   13 1  
    13   13   14 1  
    14   14   15 1  
    15   15   16 1  
    16   15   17 1  
    17   16   21 1  
    18   17   18 1  
    19   17   19 1  
    20   19   20 1  
    21   19   21 1  
    22   21   22 1  
    23   22   23 1  
    24   22   32 1  
    25   23   24 2  
    26   24   25 1  
    27   25   26 1  
    28   25   32 2  
    29   26   27 2  
    30   26   28 am 
    31   28   29 ar 
    32   29   30 ar 
    33   29   31 ar 
    34   31   32 1  
    35    5   33 1  
    36   14   34 1  
    37   14   35 1  
    38   15   36 1  
    39   17   37 1  
    40   18   38 1  
    41   19   39 1  
    42   20   40 1  
    43   21   41 1  
    44   23   42 1  
    45   28   43 1  
    46   30   44 1  
    47   30   45 1  
    48   31   46 1  
@<TRIPOS>SUBSTRUCTURE
     1 GNP         1

