### 
### Created by X-TOOL on Fri Sep 26 17:34:52 2014
### 

@<TRIPOS>MOLECULE
3r69_ligand
   18    17     1     0     0
SMALL
GAST_HUCK


@<TRIPOS>ATOM
      1 C1          8.9150   35.2920   24.0770 C.2       1 CIT         0.0371
      2 O1         10.0570   34.9150   24.3060 O.co2     1 CIT        -0.5690
      3 O2          8.2580   35.7160   25.0920 O.co2     1 CIT        -0.5690
      4 C2          8.3900   35.2760   22.6500 C.3       1 CIT         0.0356
      5 C3          9.4390   35.5670   21.5710 C.3       1 CIT         0.1328
      6 O7         10.6040   34.6670   21.7650 O.3       1 CIT        -0.3818
      7 C4          9.8300   37.0420   21.6390 C.3       1 CIT         0.0356
      8 C5         10.8040   37.5380   20.5850 C.2       1 CIT         0.0371
      9 O3         11.3530   36.7660   19.7900 O.co2     1 CIT        -0.5690
     10 O4         11.0530   38.7620   20.5350 O.co2     1 CIT        -0.5690
     11 C6          8.8210   35.2790   20.1960 C.2       1 CIT         0.0796
     12 O5          9.1200   34.2540   19.5490 O.co2     1 CIT        -0.5449
     13 O6          8.0080   36.1170   19.7430 O.co2     1 CIT        -0.5449
     14 H           7.6406   36.0646   22.5814 H         1 CIT         0.0452
     15 H           8.0170   34.2690   22.4630 H         1 CIT         0.0452
     16 H          10.9839   34.8198   22.6333 H         1 CIT         0.2091
     17 H          10.3308   37.1762   22.5978 H         1 CIT         0.0452
     18 H           8.9090   37.6044   21.4854 H         1 CIT         0.0452
@<TRIPOS>BOND
     1    1    2 ar 
     2    1    3 ar 
     3    1    4 1  
     4    4    5 1  
     5    5    6 1  
     6    5    7 1  
     7    5   11 1  
     8    7    8 1  
     9    8    9 ar 
    10    8   10 ar 
    11   11   12 ar 
    12   11   13 ar 
    13    4   14 1  
    14    4   15 1  
    15    6   16 1  
    16    7   17 1  
    17    7   18 1  
@<TRIPOS>SUBSTRUCTURE
     1 CIT         1

