### 
### Created by X-TOOL on Fri Sep 26 17:34:50 2014
### 

@<TRIPOS>MOLECULE
3rl3_ligand
   37    39     1     0     0
SMALL
GAST_HUCK


@<TRIPOS>ATOM
      1 P         -24.0770   10.5650    7.1860 P.3       1 MOL         0.2008
      2 O1P       -22.7100    9.9540    7.2740 O.co2     1 MOL        -0.5537
      3 O2P       -24.7920   10.7370    8.6110 O.co2     1 MOL        -0.5537
      4 O3P       -23.9890   11.9630    6.4880 O.co2     1 MOL        -0.5537
      5 O5'       -25.0070    9.6110    6.2800 O.3       1 MOL        -0.2734
      6 C5'       -26.4230    9.8170    6.2150 C.3       1 MOL         0.1072
      7 C4'       -27.0050    8.9770    5.0420 C.3       1 MOL         0.1183
      8 O4'       -26.2170    9.2600    3.8430 O.3       1 MOL        -0.3347
      9 C3'       -26.8670    7.4600    5.1470 C.3       1 MOL         0.1150
     10 O3'       -27.9090    6.9560    5.9520 O.3       1 MOL        -0.3864
     11 C2'       -27.0420    7.0410    3.6870 C.3       1 MOL         0.1407
     12 O2'       -28.3950    7.2380    3.2210 O.3       1 MOL        -0.3835
     13 C1'       -26.1580    8.0840    3.0180 C.3       1 MOL         0.2218
     14 N9        -24.7930    7.5330    2.9240 N.pl3     1 MOL        -0.0954
     15 C8        -23.8410    7.4910    3.8640 C.2       1 MOL         0.1855
     16 N7        -22.7460    6.9020    3.3570 N.2       1 MOL        -0.1929
     17 C5        -23.0140    6.5560    2.0950 C.2       1 MOL         0.2558
     18 C6        -22.2880    5.9210    1.0910 C.2       1 MOL         0.2628
     19 O6        -21.1260    5.5560    1.2750 O.2       1 MOL        -0.3594
     20 N1        -22.8910    5.7230   -0.1520 N.am      1 MOL        -0.2478
     21 C2        -24.2070    6.1550   -0.3530 C.cat     1 MOL         0.2041
     22 N2        -24.8030    5.9860   -1.5260 N.pl3     1 MOL        -0.3327
     23 N3        -24.8790    6.7570    0.6350 N.pl3     1 MOL        -0.1901
     24 C4        -24.3110    6.9650    1.8270 C.2       1 MOL         0.3268
     25 H1        -26.6329   10.8832    6.0444 H         1 MOL         0.0639
     26 H2        -26.8855    9.4990    7.1610 H         1 MOL         0.0639
     27 H3        -28.0626    9.2478    4.9070 H         1 MOL         0.0650
     28 H4        -25.8895    7.1544    5.5484 H         1 MOL         0.0648
     29 H5        -28.7456    7.1747    5.5587 H         1 MOL         0.2100
     30 H6        -26.7124    6.0076    3.5040 H         1 MOL         0.0677
     31 H7        -28.9897    6.7199    3.7505 H         1 MOL         0.2101
     32 H8        -26.5293    8.3180    2.0094 H         1 MOL         0.1021
     33 H9        -23.9390    7.8737    4.8788 H         1 MOL         0.1823
     34 H10       -22.3876    5.2768   -0.8919 H         1 MOL         0.1819
     35 H11       -25.7718    6.3079   -1.6625 H         1 MOL         0.1774
     36 H12       -24.2969    5.5329   -2.3003 H         1 MOL         0.1774
     37 H13       -25.8488    7.0648    0.4746 H         1 MOL         0.2519
@<TRIPOS>BOND
     1    1    2 ar 
     2    1    3 ar 
     3    1    4 ar 
     4    1    5 1  
     5    5    6 1  
     6    6    7 1  
     7    7    8 1  
     8    7    9 1  
     9    8   13 1  
    10    9   10 1  
    11    9   11 1  
    12   11   12 1  
    13   11   13 1  
    14   13   14 1  
    15   14   15 1  
    16   14   24 1  
    17   15   16 2  
    18   16   17 1  
    19   17   18 1  
    20   17   24 2  
    21   18   19 2  
    22   18   20 am 
    23   20   21 ar 
    24   21   22 ar 
    25   21   23 ar 
    26   23   24 1  
    27    6   25 1  
    28    6   26 1  
    29    7   27 1  
    30    9   28 1  
    31   10   29 1  
    32   11   30 1  
    33   12   31 1  
    34   13   32 1  
    35   15   33 1  
    36   20   34 1  
    37   22   35 1  
    38   22   36 1  
    39   23   37 1  
@<TRIPOS>SUBSTRUCTURE
     1 MOL         1

