### 
### Created by X-TOOL on Fri Sep 26 17:34:56 2014
### 

@<TRIPOS>MOLECULE
3sz1_ligand
   28    27     1     0     0
SMALL
GAST_HUCK


@<TRIPOS>ATOM
      1 C1         13.7620    9.6310    9.1280 C.2       1 KNA         0.0348
      2 O1         12.9290    8.7860    9.4450 O.co2     1 KNA        -0.5690
      3 C2         15.2360    9.4180    9.4550 C.3       1 KNA         0.0002
      4 O2         13.3510   10.7570    8.4720 O.co2     1 KNA        -0.5690
      5 C3         16.0770   10.6740    9.1480 C.3       1 KNA        -0.0414
      6 C4         17.3930   10.2870    8.4830 C.3       1 KNA        -0.0516
      7 C5         18.2350   11.5350    8.1960 C.3       1 KNA        -0.0530
      8 C6         17.5950   12.5200    7.1910 C.3       1 KNA        -0.0531
      9 C7         18.5610   13.7110    6.9150 C.3       1 KNA        -0.0533
     10 C8         17.8510   15.0480    7.2060 C.3       1 KNA        -0.0559
     11 C9         18.6060   16.2540    6.6040 C.3       1 KNA        -0.0653
     12 H1         15.6166    8.5789    8.8542 H         1 KNA         0.0430
     13 H2         15.3326    9.1772   10.5239 H         1 KNA         0.0430
     14 H3         16.2889   11.2060   10.0872 H         1 KNA         0.0283
     15 H4         15.5106   11.3327    8.4732 H         1 KNA         0.0283
     16 H5         17.1817    9.7672    7.5369 H         1 KNA         0.0266
     17 H6         17.9538    9.6176    9.1519 H         1 KNA         0.0266
     18 H7         19.2042   11.2102    7.7896 H         1 KNA         0.0265
     19 H8         18.3953   12.0676    9.1450 H         1 KNA         0.0265
     20 H9         16.6535   12.9054    7.6094 H         1 KNA         0.0265
     21 H10        17.3887   11.9935    6.2475 H         1 KNA         0.0265
     22 H11        18.8751   13.6879    5.8611 H         1 KNA         0.0265
     23 H12        19.4450   13.6201    7.5632 H         1 KNA         0.0265
     24 H13        17.7812   15.1821    8.2956 H         1 KNA         0.0263
     25 H14        16.8394   15.0128    6.7753 H         1 KNA         0.0263
     26 H15        18.0619   17.1810    6.8378 H         1 KNA         0.0230
     27 H16        18.6759   16.1353    5.5127 H         1 KNA         0.0230
     28 H17        19.6177   16.3045    7.0329 H         1 KNA         0.0230
@<TRIPOS>BOND
     1    1    2 ar 
     2    1    3 1  
     3    1    4 ar 
     4    3    5 1  
     5    5    6 1  
     6    6    7 1  
     7    7    8 1  
     8    8    9 1  
     9    9   10 1  
    10   10   11 1  
    11    3   12 1  
    12    3   13 1  
    13    5   14 1  
    14    5   15 1  
    15    6   16 1  
    16    6   17 1  
    17    7   18 1  
    18    7   19 1  
    19    8   20 1  
    20    8   21 1  
    21    9   22 1  
    22    9   23 1  
    23   10   24 1  
    24   10   25 1  
    25   11   26 1  
    26   11   27 1  
    27   11   28 1  
@<TRIPOS>SUBSTRUCTURE
     1 KNA         1

