### 
### Created by X-TOOL on Fri Sep 26 17:35:02 2014
### 

@<TRIPOS>MOLECULE
3zkf_ligand
  148   148     1     0     0
SMALL
GAST_HUCK


@<TRIPOS>ATOM
      1 N          48.6070  200.4110  -12.9770 N.4       1 VAL         0.2381
      2 CA         48.3200  199.3920  -13.9940 C.3       1 VAL         0.0673
      3 C          48.1070  197.9830  -13.4380 C.2       1 VAL         0.2268
      4 O          47.9630  197.7930  -12.2280 O.2       1 VAL        -0.3907
      5 CB         49.3960  199.3390  -15.1100 C.3       1 VAL         0.0139
      6 CG1        48.7980  199.8280  -16.4170 C.3       1 VAL        -0.0553
      7 CG2        50.6070  200.1720  -14.7440 C.3       1 VAL        -0.0553
      8 N          48.0500  197.0150  -14.3520 N.am      1 VAL        -0.2637
      9 CA         47.9410  195.6120  -14.0090 C.3       1 VAL         0.1202
     10 C          46.5270  195.0820  -13.9620 C.2       1 VAL         0.2007
     11 O          46.1230  194.3190  -14.8370 O.2       1 VAL        -0.3947
     12 N          45.7840  195.4990  -12.9400 N.am      1 VAL        -0.2639
     13 CA         44.5100  194.8870  -12.5710 C.3       1 VAL         0.1317
     14 C          43.3190  195.8670  -12.6080 C.2       1 VAL         0.2040
     15 O          43.3730  196.9520  -12.0400 O.2       1 VAL        -0.3944
     16 CB         44.6350  194.2460  -11.1740 C.3       1 VAL        -0.0034
     17 CG         45.6900  193.1580  -11.0810 C.3       1 VAL        -0.0024
     18 SD         45.4630  191.8140  -12.2910 S.3       1 VAL        -0.1639
     19 CE         44.8470  190.5050  -11.2330 C.3       1 VAL        -0.0181
     20 N          42.2440  195.4590  -13.2670 N.am      1 VAL        -0.2625
     21 CA         41.0480  196.2710  -13.4080 C.3       1 VAL         0.1369
     22 C          39.8460  195.3870  -13.1380 C.2       1 VAL         0.2054
     23 O          39.7320  194.2990  -13.6930 O.2       1 VAL        -0.3942
     24 CB         40.9520  196.8270  -14.8280 C.3       1 VAL         0.0145
     25 CG         42.2330  197.4060  -15.3260 C.2       1 VAL        -0.0027
     26 ND1        42.5210  198.7500  -15.2410 N.2       1 VAL        -0.3252
     27 CD2        43.3210  196.8200  -15.8830 C.2       1 VAL         0.0291
     28 CE1        43.7250  198.9710  -15.7380 C.2       1 VAL         0.0907
     29 NE2        44.2320  197.8140  -16.1330 N.pl3     1 VAL        -0.2752
     30 N          38.9560  195.8350  -12.2670 N.am      1 VAL        -0.2612
     31 CA         37.7320  195.0960  -12.0390 C.3       1 VAL         0.1586
     32 CB         37.2000  195.3460  -10.6390 C.3       1 VAL         0.1184
     33 OG         37.1030  196.7440  -10.4190 O.3       1 VAL        -0.2714
     34 C          36.7500  195.5320  -13.1100 C.2       1 VAL         0.2065
     35 O          36.8550  196.6360  -13.6470 O.2       1 VAL        -0.3943
     36 P          37.7000  197.1960   -8.9840 P.3       1 VAL         0.2010
     37 O1P        36.5510  198.1160   -8.3340 O.co2     1 VAL        -0.5537
     38 O2P        37.9870  195.9510   -7.9850 O.co2     1 VAL        -0.5537
     39 O3P        39.0690  198.0120   -9.2550 O.co2     1 VAL        -0.5537
     40 N          35.8330  194.6350  -13.4480 N.am      1 VAL        -0.2637
     41 CA         34.8700  194.8390  -14.5220 C.3       1 VAL         0.1310
     42 C          33.6520  193.9790  -14.2620 C.2       1 VAL         0.2037
     43 O          33.7620  192.8890  -13.7010 O.2       1 VAL        -0.3944
     44 CB         35.4830  194.5140  -15.8870 C.3       1 VAL        -0.0122
     45 CG         36.2280  195.6900  -16.5060 C.3       1 VAL        -0.0440
     46 CD         36.8360  195.3440  -17.8650 C.3       1 VAL        -0.0124
     47 CE         37.8500  196.4110  -18.3090 C.3       1 VAL        -0.0354
     48 NZ         37.6740  196.7440  -19.7620 N.4       1 VAL         0.2185
     49 N          32.4900  194.5040  -14.6430 N.am      1 VAL        -0.2664
     50 CA         31.2120  193.8570  -14.4070 C.3       1 VAL         0.1201
     51 C          30.4460  193.6320  -15.6970 C.2       1 VAL         0.2008
     52 O          30.5350  194.4320  -16.6300 O.2       1 VAL        -0.3947
     53 N          29.7110  192.5300  -15.7640 N.am      1 VAL        -0.2616
     54 CA         28.9330  192.2180  -16.9530 C.3       1 VAL         0.1565
     55 C          27.5240  191.8200  -16.5680 C.2       1 VAL         0.2065
     56 O          27.2880  191.3030  -15.4830 O.2       1 VAL        -0.3943
     57 CB         29.5520  191.0500  -17.7890 C.3       1 VAL         0.0924
     58 OG1        29.5520  189.8340  -17.0190 O.3       1 VAL        -0.3874
     59 CG2        30.9640  191.3820  -18.2500 C.3       1 VAL        -0.0346
     60 N          26.5930  192.0470  -17.4810 N.am      1 VAL        -0.2635
     61 CA         25.2220  191.6340  -17.2700 C.3       1 VAL         0.1330
     62 C          24.6550  191.2970  -18.6280 C.2       1 VAL         0.2036
     63 O          24.6720  192.1340  -19.5310 O.2       1 VAL        -0.3944
     64 CB         24.4330  192.7640  -16.6000 C.3       1 VAL         0.0045
     65 CG         23.0290  192.3940  -16.1450 C.3       1 VAL         0.0412
     66 CD         23.0180  191.1860  -15.2450 C.2       1 VAL         0.1737
     67 OE1        23.3110  191.2750  -14.0480 O.2       1 VAL        -0.3973
     68 NE2        22.6820  190.0350  -15.8160 N.am      1 VAL        -0.3009
     69 N          24.1760  190.0650  -18.7770 N.am      1 VAL        -0.2670
     70 CA         23.6270  189.5780  -20.0590 C.3       1 VAL         0.1198
     71 C          22.6480  190.5440  -20.7370 C.2       1 VAL         0.0626
     72 O          21.4041  190.4497  -20.5596 O.co2     1 VAL        -0.5665
     73 CB         22.9640  188.1800  -19.9180 C.3       1 VAL         0.0869
     74 OG1        22.3750  188.0410  -18.6160 O.3       1 VAL        -0.3880
     75 CG2        24.0070  187.0960  -20.0950 C.3       1 VAL        -0.0352
     76 O          23.0969  191.4512  -21.4874 O.co2     1 VAL        -0.5665
     77 H1         47.8800  200.4029  -12.2788 H         1 VAL         0.2015
     78 H2         48.6444  201.3193  -13.4126 H         1 VAL         0.2015
     79 H3         49.4935  200.2105  -12.5412 H         1 VAL         0.2015
     80 H4         47.3745  199.6928  -14.4689 H         1 VAL         0.1101
     81 H5         49.7177  198.2948  -15.2370 H         1 VAL         0.0376
     82 H6         49.5625  199.7897  -17.2070 H         1 VAL         0.0236
     83 H7         48.4481  200.8637  -16.2954 H         1 VAL         0.0236
     84 H8         47.9502  199.1849  -16.6957 H         1 VAL         0.0236
     85 H9         51.0299  199.8074  -13.7962 H         1 VAL         0.0236
     86 H10        50.3076  201.2244  -14.6311 H         1 VAL         0.0236
     87 H11        51.3629  200.0890  -15.5388 H         1 VAL         0.0236
     88 H12        48.0840  197.2687  -15.3187 H         1 VAL         0.1882
     89 H13        48.3951  195.4652  -13.0179 H         1 VAL         0.0763
     90 H14        48.4997  195.0317  -14.7580 H         1 VAL         0.0763
     91 H15        46.1146  196.2708  -12.3968 H         1 VAL         0.1883
     92 H16        44.3017  194.0887  -13.2986 H         1 VAL         0.0800
     93 H17        43.6623  193.8070  -10.9075 H         1 VAL         0.0320
     94 H18        44.8903  195.0367  -10.4532 H         1 VAL         0.0320
     95 H19        45.6548  192.7252  -10.0703 H         1 VAL         0.0378
     96 H20        46.6762  193.6149  -11.2501 H         1 VAL         0.0378
     97 H21        44.6582  189.6045  -11.8359 H         1 VAL         0.0340
     98 H22        43.9107  190.8295  -10.7555 H         1 VAL         0.0340
     99 H23        45.5940  190.2775  -10.4583 H         1 VAL         0.0340
    100 H24        42.2569  194.5511  -13.6861 H         1 VAL         0.1885
    101 H25        41.0742  197.1018  -12.6875 H         1 VAL         0.0817
    102 H26        40.1845  197.6148  -14.8427 H         1 VAL         0.0420
    103 H27        40.6529  196.0110  -15.5023 H         1 VAL         0.0420
    104 H28        43.4478  195.7589  -16.0926 H         1 VAL         0.0729
    105 H29        44.2165  199.9401  -15.8103 H         1 VAL         0.1199
    106 H30        45.1603  197.6817  -16.5591 H         1 VAL         0.2361
    107 H31        39.1288  196.6834  -11.7666 H         1 VAL         0.1884
    108 H32        37.9296  194.0193  -12.1472 H         1 VAL         0.0827
    109 H33        37.8854  194.9042   -9.9007 H         1 VAL         0.0662
    110 H34        36.2053  194.8877  -10.5362 H         1 VAL         0.0662
    111 H35        35.8011  193.7746  -12.9395 H         1 VAL         0.1883
    112 H36        34.5633  195.8954  -14.5237 H         1 VAL         0.0800
    113 H37        34.6752  194.2133  -16.5703 H         1 VAL         0.0312
    114 H38        36.1886  193.6792  -15.7635 H         1 VAL         0.0312
    115 H39        37.0361  195.9944  -15.8247 H         1 VAL         0.0269
    116 H40        35.5241  196.5251  -16.6363 H         1 VAL         0.0269
    117 H41        36.0314  195.2809  -18.6124 H         1 VAL         0.0317
    118 H42        37.3464  194.3723  -17.7927 H         1 VAL         0.0317
    119 H43        38.8689  196.0291  -18.1478 H         1 VAL         0.0813
    120 H44        37.7006  197.3215  -17.7101 H         1 VAL         0.0813
    121 H45        38.3479  197.4440  -20.0303 H         1 VAL         0.1994
    122 H46        36.7427  197.0980  -19.9152 H         1 VAL         0.1994
    123 H47        37.8133  195.9137  -20.3163 H         1 VAL         0.1994
    124 H48        32.4975  195.3860  -15.1142 H         1 VAL         0.1881
    125 H49        30.6091  194.4923  -13.7415 H         1 VAL         0.0763
    126 H50        31.3893  192.8846  -13.9243 H         1 VAL         0.0763
    127 H51        29.6913  191.9036  -14.9848 H         1 VAL         0.1884
    128 H52        28.8934  193.1186  -17.5833 H         1 VAL         0.0826
    129 H53        28.9268  190.8970  -18.6810 H         1 VAL         0.0639
    130 H54        28.6594  189.6097  -16.7834 H         1 VAL         0.2101
    131 H55        31.3666  190.5407  -18.8332 H         1 VAL         0.0257
    132 H56        31.6038  191.5597  -17.3730 H         1 VAL         0.0257
    133 H57        30.9421  192.2855  -18.8770 H         1 VAL         0.0257
    134 H58        26.8411  192.5117  -18.3310 H         1 VAL         0.1883
    135 H59        25.1926  190.7437  -16.6247 H         1 VAL         0.0801
    136 H60        24.3503  193.5932  -17.3180 H         1 VAL         0.0337
    137 H61        24.9994  193.0977  -15.7181 H         1 VAL         0.0337
    138 H62        22.4150  192.1795  -17.0321 H         1 VAL         0.0504
    139 H63        22.5985  193.2460  -15.5983 H         1 VAL         0.0504
    140 H64        22.6558  189.1961  -15.2724 H         1 VAL         0.1814
    141 H65        22.4552  190.0073  -16.7895 H         1 VAL         0.1814
    142 H66        24.1880  189.4455  -17.9921 H         1 VAL         0.1876
    143 H67        24.4843  189.4653  -20.7389 H         1 VAL         0.0752
    144 H68        22.1848  188.0695  -20.6866 H         1 VAL         0.0632
    145 H69        21.9731  187.1835  -18.5414 H         1 VAL         0.2100
    146 H70        23.5312  186.1094  -19.9940 H         1 VAL         0.0256
    147 H71        24.7860  187.2077  -19.3265 H         1 VAL         0.0256
    148 H72        24.4612  187.1836  -21.0930 H         1 VAL         0.0256
@<TRIPOS>BOND
     1    1    2 1  
     2    2    3 1  
     3    2    5 1  
     4    3    4 2  
     5    3    8 am 
     6    5    6 1  
     7    5    7 1  
     8    8    9 1  
     9    9   10 1  
    10   10   11 2  
    11   10   12 am 
    12   12   13 1  
    13   13   14 1  
    14   13   16 1  
    15   14   15 2  
    16   14   20 am 
    17   16   17 1  
    18   17   18 1  
    19   18   19 1  
    20   20   21 1  
    21   21   22 1  
    22   21   24 1  
    23   22   23 2  
    24   22   30 am 
    25   24   25 1  
    26   25   26 1  
    27   25   27 2  
    28   26   28 2  
    29   27   29 1  
    30   28   29 1  
    31   30   31 1  
    32   31   32 1  
    33   31   34 1  
    34   32   33 1  
    35   33   36 1  
    36   34   35 2  
    37   34   40 am 
    38   36   37 ar 
    39   36   38 ar 
    40   36   39 ar 
    41   40   41 1  
    42   41   42 1  
    43   41   44 1  
    44   42   43 2  
    45   42   49 am 
    46   44   45 1  
    47   45   46 1  
    48   46   47 1  
    49   47   48 1  
    50   49   50 1  
    51   50   51 1  
    52   51   52 2  
    53   51   53 am 
    54   53   54 1  
    55   54   55 1  
    56   54   57 1  
    57   55   56 2  
    58   55   60 am 
    59   57   58 1  
    60   57   59 1  
    61   60   61 1  
    62   61   62 1  
    63   61   64 1  
    64   62   63 2  
    65   62   69 am 
    66   64   65 1  
    67   65   66 1  
    68   66   67 2  
    69   66   68 am 
    70   69   70 1  
    71   70   71 1  
    72   70   73 1  
    73   71   72 ar 
    74   73   74 1  
    75   73   75 1  
    76   71   76 ar 
    77    1   77 1  
    78    1   78 1  
    79    1   79 1  
    80    2   80 1  
    81    5   81 1  
    82    6   82 1  
    83    6   83 1  
    84    6   84 1  
    85    7   85 1  
    86    7   86 1  
    87    7   87 1  
    88    8   88 1  
    89    9   89 1  
    90    9   90 1  
    91   12   91 1  
    92   13   92 1  
    93   16   93 1  
    94   16   94 1  
    95   17   95 1  
    96   17   96 1  
    97   19   97 1  
    98   19   98 1  
    99   19   99 1  
   100   20  100 1  
   101   21  101 1  
   102   24  102 1  
   103   24  103 1  
   104   27  104 1  
   105   28  105 1  
   106   29  106 1  
   107   30  107 1  
   108   31  108 1  
   109   32  109 1  
   110   32  110 1  
   111   40  111 1  
   112   41  112 1  
   113   44  113 1  
   114   44  114 1  
   115   45  115 1  
   116   45  116 1  
   117   46  117 1  
   118   46  118 1  
   119   47  119 1  
   120   47  120 1  
   121   48  121 1  
   122   48  122 1  
   123   48  123 1  
   124   49  124 1  
   125   50  125 1  
   126   50  126 1  
   127   53  127 1  
   128   54  128 1  
   129   57  129 1  
   130   58  130 1  
   131   59  131 1  
   132   59  132 1  
   133   59  133 1  
   134   60  134 1  
   135   61  135 1  
   136   64  136 1  
   137   64  137 1  
   138   65  138 1  
   139   65  139 1  
   140   68  140 1  
   141   68  141 1  
   142   69  142 1  
   143   70  143 1  
   144   73  144 1  
   145   74  145 1  
   146   75  146 1  
   147   75  147 1  
   148   75  148 1  
@<TRIPOS>SUBSTRUCTURE
     1 VAL         1

