### 
### Created by X-TOOL on Fri Sep 26 17:34:55 2014
### 

@<TRIPOS>MOLECULE
4e28_ligand
   45    47     1     0     0
SMALL
GAST_HUCK


@<TRIPOS>ATOM
      1 C2         55.7070  -17.4010   14.1400 C.ar      1 MOL        -0.0398
      2 C4         54.1740  -18.4410   12.6140 C.ar      1 MOL        -0.0797
      3 C5         53.1610  -18.3270   13.5500 C.ar      1 MOL        -0.0669
      4 C6         53.4270  -17.7480   14.7780 C.ar      1 MOL         0.0104
      5 F28        42.0950  -21.0230   10.5370 F         1 MOL        -0.2209
      6 C27        42.1100  -22.3160   10.8000 C.3       1 MOL         0.3727
      7 F30        42.1820  -22.9920    9.6660 F         1 MOL        -0.2209
      8 F29        41.0020  -22.6260   11.4500 F         1 MOL        -0.2209
      9 C25        43.2970  -22.6380   11.6600 C.ar      1 MOL         0.0335
     10 C26        44.1920  -21.6340   12.0100 C.ar      1 MOL        -0.0124
     11 C24        43.5110  -23.9440   12.0890 C.ar      1 MOL        -0.0451
     12 C23        44.6120  -24.2440   12.8830 C.ar      1 MOL        -0.0433
     13 C22        45.5030  -23.2400   13.2360 C.ar      1 MOL        -0.0112
     14 C21        45.2990  -21.9350   12.7970 C.ar      1 MOL         0.0950
     15 N18        46.2200  -20.9500   13.1830 N.am      1 MOL        -0.2280
     16 C17        46.3610  -19.7660   12.5870 C.2       1 MOL         0.2073
     17 O19        45.7210  -19.3790   11.6240 O.2       1 MOL        -0.3848
     18 C16        47.4180  -18.8740   13.1870 C.3       1 MOL         0.0744
     19 C13        47.1170  -18.6160   14.6590 C.3       1 MOL         0.1291
     20 C14        47.5640  -19.7390   15.5620 C.2       1 MOL         0.1938
     21 O20        47.0600  -20.8490   15.5380 O.2       1 MOL        -0.3742
     22 N15        48.5600  -19.3950   16.3880 N.2       1 MOL        -0.2082
     23 C11        49.0590  -18.2640   16.1460 C.2       1 MOL         0.2332
     24 S12        48.1010  -17.2790   15.2240 S.3       1 MOL        -0.0005
     25 N10        50.2850  -17.9280   16.5010 N.2       1 MOL        -0.0925
     26 N9         51.2040  -18.0580   15.5670 N.2       1 MOL        -0.1589
     27 C8         52.3550  -17.6230   15.7850 C.3       1 MOL         0.0982
     28 C3         55.4450  -17.9800   12.9100 C.ar      1 MOL        -0.0776
     29 C1         54.6940  -17.2840   15.0790 C.ar      1 MOL         0.0912
     30 O1         54.9490  -16.7220   16.2970 O.3       1 MOL        -0.3368
     31 H          56.7086  -17.0376   14.3698 H         1 MOL         0.0521
     32 H          53.9709  -18.8939   11.6436 H         1 MOL         0.0505
     33 H          52.1595  -18.6912   13.3210 H         1 MOL         0.0526
     34 H          44.0268  -20.6122   11.6684 H         1 MOL         0.0711
     35 H          42.8150  -24.7324   11.8024 H         1 MOL         0.0741
     36 H          44.7751  -25.2652   13.2275 H         1 MOL         0.0664
     37 H          46.3658  -23.4744   13.8594 H         1 MOL         0.0759
     38 H          46.8260  -21.1546   13.9776 H         1 MOL         0.2259
     39 H          47.4274  -17.9237   12.6532 H         1 MOL         0.0546
     40 H          48.3880  -19.3639   13.1021 H         1 MOL         0.0546
     41 H          46.0390  -18.4616   14.7049 H         1 MOL         0.0708
     42 H          52.2133  -16.5468   15.8837 H         1 MOL         0.0682
     43 H          52.7091  -18.2275   16.6201 H         1 MOL         0.0682
     44 H          56.2422  -18.0731   12.1725 H         1 MOL         0.0531
     45 H          55.8705  -16.4562   16.3389 H         1 MOL         0.2456
@<TRIPOS>BOND
     1    1   28 ar 
     2   29    1 ar 
     3    3    2 ar 
     4    2   28 ar 
     5    4    3 ar 
     6   27    4 1  
     7    4   29 ar 
     8    6    5 1  
     9    6    7 1  
    10    6    8 1  
    11    9    6 1  
    12   10    9 ar 
    13    9   11 ar 
    14   14   10 ar 
    15   12   11 ar 
    16   13   12 ar 
    17   14   13 ar 
    18   15   14 1  
    19   16   15 am 
    20   16   17 2  
    21   18   16 1  
    22   19   18 1  
    23   19   20 1  
    24   24   19 1  
    25   20   21 2  
    26   22   20 1  
    27   23   22 2  
    28   23   24 1  
    29   25   23 1  
    30   26   25 2  
    31   26   27 1  
    32   29   30 1  
    33    1   31 1  
    34    2   32 1  
    35    3   33 1  
    36   10   34 1  
    37   11   35 1  
    38   12   36 1  
    39   13   37 1  
    40   15   38 1  
    41   18   39 1  
    42   18   40 1  
    43   19   41 1  
    44   27   42 1  
    45   27   43 1  
    46   28   44 1  
    47   30   45 1  
@<TRIPOS>SUBSTRUCTURE
     1 MOL         1

