### 
### Created by X-TOOL on Fri Sep 26 17:34:56 2014
### 

@<TRIPOS>MOLECULE
4eg5_ligand
   20    19     1     0     0
SMALL
GAST_HUCK


@<TRIPOS>ATOM
      1 N           7.6930   15.5880  -55.2710 N.4       1 MET         0.2327
      2 CA          7.5040   16.0290  -53.8930 C.3       1 MET         0.0291
      3 C           8.8370   16.5090  -53.3460 C.2       1 MET         0.0844
      4 O           9.9070   16.3890  -54.0000 O.co2     1 MET        -0.5643
      5 CB          7.0160   14.8800  -52.9890 C.3       1 MET         0.0114
      6 CG          5.7840   14.1140  -53.4650 C.3       1 MET         0.0001
      7 SD          5.3950   12.6710  -52.4360 S.3       1 MET        -0.1638
      8 CE          4.1870   11.8490  -53.4760 C.3       1 MET        -0.0181
      9 OXT         8.8480   16.9780  -52.1930 O.co2     1 MET        -0.5643
     10 H           8.0151   16.3731  -55.8368 H         1 MET         0.2010
     11 H           8.3880   14.8418  -55.2956 H         1 MET         0.2010
     12 H           6.8075   15.2418  -55.6404 H         1 MET         0.2010
     13 H           6.7558   16.8217  -53.8955 H         1 MET         0.1024
     14 H           6.7375   15.3398  -52.0408 H         1 MET         0.0347
     15 H           7.8289   14.1545  -52.9581 H         1 MET         0.0347
     16 H           5.9888   13.7543  -54.4733 H         1 MET         0.0379
     17 H           4.9334   14.7937  -53.4146 H         1 MET         0.0379
     18 H           3.3391   12.5138  -53.6410 H         1 MET         0.0340
     19 H           4.6445   11.5973  -54.4328 H         1 MET         0.0340
     20 H           3.8458   10.9381  -52.9841 H         1 MET         0.0340
@<TRIPOS>BOND
     1    1    2 1  
     2    2    3 1  
     3    2    5 1  
     4    3    4 ar 
     5    3    9 ar 
     6    5    6 1  
     7    6    7 1  
     8    7    8 1  
     9    1   10 1  
    10    1   11 1  
    11    1   12 1  
    12    2   13 1  
    13    5   14 1  
    14    5   15 1  
    15    6   16 1  
    16    6   17 1  
    17    8   18 1  
    18    8   19 1  
    19    8   20 1  
@<TRIPOS>SUBSTRUCTURE
     1 MET         1

