### 
### Created by X-TOOL on Fri Sep 26 17:34:57 2014
### 

@<TRIPOS>MOLECULE
4f3h_ligand
   70    76     1     0     0
SMALL
GAST_HUCK


@<TRIPOS>ATOM
      1 P1         23.3040  -27.0400  -37.3880 P.3       1 C2E         0.2557
      2 O2P        24.5870  -26.8170  -36.6580 O.co2     1 C2E        -0.6177
      3 O1P        22.5640  -25.7570  -37.5460 O.co2     1 C2E        -0.6177
      4 O5'        23.6000  -27.6560  -38.7900 O.3       1 C2E        -0.2514
      5 C5'        22.5780  -28.0070  -39.7120 C.3       1 C2E         0.1128
      6 C4'        23.2810  -28.5550  -40.9630 C.3       1 C2E         0.1243
      7 O4'        24.1290  -27.5440  -41.4050 O.3       1 C2E        -0.3343
      8 C3'        24.1890  -29.7540  -40.7750 C.3       1 C2E         0.1541
      9 O3'        23.4280  -30.9870  -40.8940 O.3       1 C2E        -0.2453
     10 C2'        25.2290  -29.4870  -41.8490 C.3       1 C2E         0.1461
     11 O2'        24.8320  -30.1290  -43.0700 O.3       1 C2E        -0.3831
     12 C1'        25.3480  -27.9590  -42.0050 C.3       1 C2E         0.2222
     13 N9         26.5180  -27.4770  -41.2310 N.pl3     1 C2E        -0.0954
     14 C8         26.5100  -26.8220  -40.0590 C.2       1 C2E         0.1855
     15 N7         27.7530  -26.5240  -39.6480 N.2       1 C2E        -0.1929
     16 C5         28.5960  -26.9780  -40.5750 C.2       1 C2E         0.2558
     17 C6         30.0820  -26.9820  -40.7860 C.2       1 C2E         0.2628
     18 O6         30.8520  -26.4560  -39.9410 O.2       1 C2E        -0.3594
     19 N1         30.5720  -27.5590  -41.9160 N.am      1 C2E        -0.2478
     20 C2         29.7530  -28.1310  -42.8510 C.cat     1 C2E         0.2041
     21 N2         30.2710  -28.6920  -43.9660 N.pl3     1 C2E        -0.3327
     22 N3         28.3940  -28.1570  -42.7020 N.pl3     1 C2E        -0.1901
     23 C4         27.7770  -27.6080  -41.6130 C.2       1 C2E         0.3268
     24 P11        23.7440  -31.9910  -39.7010 P.3       1 C2E         0.2557
     25 O21        25.2140  -32.2400  -39.7760 O.co2     1 C2E        -0.6177
     26 O11        22.9360  -33.2130  -39.9460 O.co2     1 C2E        -0.6177
     27 O5A        23.3390  -31.3010  -38.3090 O.3       1 C2E        -0.2514
     28 C5A        21.9450  -31.0470  -38.0300 C.3       1 C2E         0.1128
     29 C4A        21.7120  -30.2970  -36.7220 C.3       1 C2E         0.1243
     30 O4A        21.2980  -30.9990  -35.5120 O.3       1 C2E        -0.3343
     31 C3A        22.8670  -29.3390  -36.3430 C.3       1 C2E         0.1541
     32 O3A        22.3480  -28.0080  -36.5380 O.3       1 C2E        -0.2453
     33 C2A        23.2190  -29.7110  -34.9280 C.3       1 C2E         0.1461
     34 O2A        23.3830  -28.5360  -34.1290 O.3       1 C2E        -0.3831
     35 C1A        22.1120  -30.6350  -34.3950 C.3       1 C2E         0.2222
     36 N91        22.6430  -31.8210  -33.6660 N.pl3     1 C2E        -0.0954
     37 C81        22.3110  -32.1610  -32.3870 C.2       1 C2E         0.1855
     38 N71        22.9470  -33.2880  -31.9820 N.2       1 C2E        -0.1929
     39 C51        23.7150  -33.7030  -33.0120 C.2       1 C2E         0.2558
     40 C61        24.6590  -34.8280  -33.2860 C.2       1 C2E         0.2628
     41 O61        24.9040  -35.6950  -32.4380 O.2       1 C2E        -0.3594
     42 N11        25.2540  -34.8930  -34.5040 N.am      1 C2E        -0.2478
     43 C21        25.0280  -33.9720  -35.4820 C.cat     1 C2E         0.2041
     44 N21        25.6610  -34.1120  -36.6580 N.pl3     1 C2E        -0.3327
     45 N31        24.1810  -32.9130  -35.3100 N.pl3     1 C2E        -0.1901
     46 C41        23.5090  -32.7270  -34.1190 C.2       1 C2E         0.3268
     47 H          21.9641  -27.1410  -39.9595 H         1 C2E         0.0647
     48 H          21.9088  -28.7535  -39.2843 H         1 C2E         0.0647
     49 H          22.4764  -28.8682  -41.6283 H         1 C2E         0.0655
     50 H          24.6570  -29.8809  -39.7988 H         1 C2E         0.0712
     51 H          26.2037  -29.8936  -41.5793 H         1 C2E         0.0681
     52 H          24.7581  -31.0749  -42.9235 H         1 C2E         0.2102
     53 H          25.4906  -27.5943  -43.0222 H         1 C2E         0.1022
     54 H          25.6053  -26.5638  -39.5086 H         1 C2E         0.1823
     55 H          31.5801  -27.5655  -42.0710 H         1 C2E         0.1819
     56 H          31.2799  -28.6912  -44.1158 H         1 C2E         0.1774
     57 H          29.6530  -29.1162  -44.6578 H         1 C2E         0.1774
     58 H          27.8246  -28.5986  -43.4240 H         1 C2E         0.2519
     59 H          21.4466  -32.0128  -37.9467 H         1 C2E         0.0647
     60 H          21.5577  -30.4253  -38.8372 H         1 C2E         0.0647
     61 H          20.8084  -29.7773  -37.0407 H         1 C2E         0.0655
     62 H          23.7828  -29.3988  -36.9311 H         1 C2E         0.0712
     63 H          24.1706  -30.2411  -34.8883 H         1 C2E         0.0681
     64 H          22.5640  -28.0352  -34.1265 H         1 C2E         0.2102
     65 H          21.5187  -30.1088  -33.6472 H         1 C2E         0.1022
     66 H          21.6176  -31.5946  -31.7653 H         1 C2E         0.1823
     67 H          25.8961  -35.6622  -34.6948 H         1 C2E         0.1819
     68 H          26.2963  -34.8963  -36.8050 H         1 C2E         0.1774
     69 H          25.5065  -33.4340  -37.4042 H         1 C2E         0.1774
     70 H          24.0436  -32.2504  -36.0732 H         1 C2E         0.2519
@<TRIPOS>BOND
     1    1    2 ar 
     2    1    3 ar 
     3    1    4 1  
     4    1   32 1  
     5    4    5 1  
     6    5    6 1  
     7    6    7 1  
     8    6    8 1  
     9    7   12 1  
    10    8    9 1  
    11    8   10 1  
    12    9   24 1  
    13   10   11 1  
    14   10   12 1  
    15   12   13 1  
    16   13   14 1  
    17   13   23 1  
    18   14   15 2  
    19   15   16 1  
    20   16   17 1  
    21   16   23 2  
    22   17   18 2  
    23   17   19 am 
    24   19   20 ar 
    25   20   21 ar 
    26   20   22 ar 
    27   22   23 1  
    28   24   25 ar 
    29   24   26 ar 
    30   24   27 1  
    31   27   28 1  
    32   28   29 1  
    33   29   30 1  
    34   29   31 1  
    35   30   35 1  
    36   31   32 1  
    37   31   33 1  
    38   33   34 1  
    39   33   35 1  
    40   35   36 1  
    41   36   37 1  
    42   36   46 1  
    43   37   38 2  
    44   38   39 1  
    45   39   40 1  
    46   39   46 2  
    47   40   41 2  
    48   40   42 am 
    49   42   43 ar 
    50   43   44 ar 
    51   43   45 ar 
    52   45   46 1  
    53    5   47 1  
    54    5   48 1  
    55    6   49 1  
    56    8   50 1  
    57   10   51 1  
    58   11   52 1  
    59   12   53 1  
    60   14   54 1  
    61   19   55 1  
    62   21   56 1  
    63   21   57 1  
    64   22   58 1  
    65   28   59 1  
    66   28   60 1  
    67   29   61 1  
    68   31   62 1  
    69   33   63 1  
    70   34   64 1  
    71   35   65 1  
    72   37   66 1  
    73   42   67 1  
    74   44   68 1  
    75   44   69 1  
    76   45   70 1  
@<TRIPOS>SUBSTRUCTURE
     1 C2E         1

