### 
### Created by X-TOOL on Sun Nov 13 14:24:32 2016
### 

@<TRIPOS>MOLECULE
4qxs_ligand
   53    55     1     0     0
SMALL
GAST_HUCK


@<TRIPOS>ATOM
      1 OAE         7.9300   72.6130   25.5350 O.co2     1 WC1        -0.5610
      2 PAD         7.6630   73.7670   26.5890 P.3       1 WC1         0.0788
      3 OAF         8.8890   74.5930   26.8600 O.co2     1 WC1        -0.5610
      4 OAG         6.3550   74.4170   26.2690 O.co2     1 WC1        -0.5610
      5 CAC         7.3540   72.8160   28.1670 C.3       1 WC1         0.1030
      6 PAH         8.8980   71.9870   28.7380 P.3       1 WC1         0.0788
      7 OAI         8.3630   71.1070   30.0240 O.co2     1 WC1        -0.5610
      8 OAK         9.2570   71.1840   27.6330 O.co2     1 WC1        -0.5610
      9 OAJ         9.7410   72.9620   29.3860 O.co2     1 WC1        -0.5610
     10 CAB         6.2520   71.7900   27.9580 C.3       1 WC1        -0.0088
     11 CAA         5.2230   71.8720   29.1270 C.2       1 WC1        -0.0446
     12 CAO         4.9130   70.8900   29.9870 C.2       1 WC1         0.0416
     13 CAT         5.4890   69.4620   30.1390 C.3       1 WC1         0.0108
     14 CAU         6.0110   69.2840   31.6050 C.3       1 WC1        -0.0508
     15 CAV         4.4700   68.4320   29.8670 C.3       1 WC1        -0.0329
     16 CAX         4.1040   68.5200   28.3790 C.3       1 WC1        -0.0605
     17 CAW         5.1240   67.0630   30.2220 C.3       1 WC1        -0.0605
     18 NAN         4.0070   71.3450   30.8530 N.pl3     1 WC1        -0.2807
     19 CAM         3.6890   72.6080   30.5430 C.ar      1 WC1         0.0572
     20 CAS         2.8370   73.4550   31.1430 C.ar      1 WC1        -0.0467
     21 CAR         2.6930   74.7390   30.6710 C.ar      1 WC1        -0.0715
     22 CAL         4.4670   72.9730   29.4910 C.ar      1 WC1        -0.0300
     23 CAP         4.3210   74.2150   29.0070 C.ar      1 WC1        -0.0707
     24 CAQ         3.4390   75.1510   29.5600 C.ar      1 WC1        -0.0380
     25 CAY         3.3680   76.4910   29.0910 C.ar      1 WC1        -0.0267
     26 CAZ         4.5850   77.1960   28.9000 C.ar      1 WC1        -0.0567
     27 CBA         4.6450   78.5110   28.4980 C.ar      1 WC1        -0.0628
     28 CBB         3.4550   79.1800   28.2630 C.ar      1 WC1        -0.0631
     29 CBC         2.2500   78.5020   28.4440 C.ar      1 WC1        -0.0628
     30 CBD         2.1830   77.1840   28.8950 C.ar      1 WC1        -0.0567
     31 H1          7.0302   73.5244   28.9437 H         1 WC1         0.0689
     32 H2          6.6922   70.7823   27.9295 H         1 WC1         0.0352
     33 H3          5.7397   71.9935   27.0061 H         1 WC1         0.0352
     34 H4          6.3230   69.3351   29.4330 H         1 WC1         0.0478
     35 H5          6.7726   70.0485   31.8184 H         1 WC1         0.0255
     36 H6          6.4542   68.2835   31.7175 H         1 WC1         0.0255
     37 H7          5.1729   69.3951   32.3087 H         1 WC1         0.0255
     38 H8          3.5729   68.5937   30.4827 H         1 WC1         0.0321
     39 H9          3.3430   67.7616   28.1431 H         1 WC1         0.0234
     40 H10         5.0018   68.3405   27.7693 H         1 WC1         0.0234
     41 H11         3.7048   69.5209   28.1581 H         1 WC1         0.0234
     42 H12         5.3701   67.0412   31.2939 H         1 WC1         0.0234
     43 H13         6.0431   66.9317   29.6320 H         1 WC1         0.0234
     44 H14         4.4205   66.2496   29.9908 H         1 WC1         0.0234
     45 H15         3.6129   70.8081   31.6387 H         1 WC1         0.2222
     46 H16         2.2617   73.1263   32.0009 H         1 WC1         0.0536
     47 H17         2.0080   75.4258   31.1549 H         1 WC1         0.0511
     48 H18         4.9134   74.5078   28.1477 H         1 WC1         0.0524
     49 H19         5.5162   76.6712   29.0802 H         1 WC1         0.0610
     50 H20         5.5985   79.0101   28.3687 H         1 WC1         0.0614
     51 H21         3.4604   80.2157   27.9430 H         1 WC1         0.0606
     52 H22         1.3247   79.0222   28.2245 H         1 WC1         0.0614
     53 H23         1.2264   76.7121   29.0879 H         1 WC1         0.0610
@<TRIPOS>BOND
     1    1    2 ar 
     2    2    3 ar 
     3    2    4 ar 
     4    2    5 1  
     5    5    6 1  
     6    5   10 1  
     7    6    7 ar 
     8    6    8 ar 
     9    6    9 ar 
    10   10   11 1  
    11   11   12 2  
    12   11   22 1  
    13   12   13 1  
    14   12   18 1  
    15   13   14 1  
    16   13   15 1  
    17   15   16 1  
    18   15   17 1  
    19   18   19 1  
    20   19   20 ar 
    21   19   22 ar 
    22   20   21 ar 
    23   21   24 ar 
    24   22   23 ar 
    25   23   24 ar 
    26   24   25 1  
    27   25   26 ar 
    28   25   30 ar 
    29   26   27 ar 
    30   27   28 ar 
    31   28   29 ar 
    32   29   30 ar 
    33    5   31 1  
    34   10   32 1  
    35   10   33 1  
    36   13   34 1  
    37   14   35 1  
    38   14   36 1  
    39   14   37 1  
    40   15   38 1  
    41   16   39 1  
    42   16   40 1  
    43   16   41 1  
    44   17   42 1  
    45   17   43 1  
    46   17   44 1  
    47   18   45 1  
    48   20   46 1  
    49   21   47 1  
    50   23   48 1  
    51   26   49 1  
    52   27   50 1  
    53   28   51 1  
    54   29   52 1  
    55   30   53 1  
@<TRIPOS>SUBSTRUCTURE
     1 WC1         1

