### 
### Created by X-TOOL on Fri Sep 26 17:34:47 2014
### 

@<TRIPOS>MOLECULE
3mpe_ligand
   80    85     1     0     0
SMALL
GAST_HUCK


@<TRIPOS>ATOM
      1 C1         13.7970  -19.5210  -39.2860 C.ar      1 N2A         0.0113
      2 C2         12.9870  -18.8040  -40.1480 C.ar      1 N2A        -0.0393
      3 C3         11.6850  -18.5280  -39.7760 C.ar      1 N2A         0.0953
      4 C4         11.1690  -18.9980  -38.4660 C.ar      1 N2A         0.0945
      5 C5         12.0240  -19.7120  -37.6310 C.ar      1 N2A        -0.0523
      6 C6         13.3320  -19.9770  -38.0460 C.ar      1 N2A        -0.0762
      7 N13         9.8940  -18.5810  -38.3900 N.am      1 N2A        -0.2086
      8 C14         9.6670  -17.9330  -39.5350 C.2       1 N2A         0.3124
      9 N15        10.7010  -17.8860  -40.3840 N.am      1 N2A        -0.2030
     10 C20        10.8420  -17.2630  -41.7200 C.3       1 N2A         0.0624
     11 C22         8.9440  -18.7890  -37.2720 C.3       1 N2A         0.0442
     12 CL24       15.4660  -19.8470  -39.8350 Cl        1 N2A        -0.0883
     13 C26         9.5870  -17.3680  -42.5670 C.3       1 N2A        -0.0434
     14 C27         9.9290  -16.8500  -43.9510 C.3       1 N2A        -0.1105
     15 N28        10.5010  -15.5200  -43.7920 N.4       1 N2A         0.4030
     16 C29        10.6660  -14.8500  -42.5060 C.3       1 N2A        -0.1105
     17 C30        11.2650  -15.8200  -41.5050 C.3       1 N2A        -0.0434
     18 C37        10.9550  -14.8460  -44.9860 C.3       1 N2A        -0.1122
     19 C39        10.1890  -13.5340  -45.1070 C.3       1 N2A        -0.0612
     20 C41        10.6730  -12.7950  -46.3430 C.3       1 N2A         0.0088
     21 N43        12.1330  -12.5660  -46.3190 N.2       1 N2A        -0.2814
     22 C45        12.6700  -11.5330  -45.5220 C.2       1 N2A         0.2339
     23 C46        14.1490  -11.3240  -45.5530 C.2       1 N2A         0.1615
     24 C47        14.8970  -12.1760  -46.3630 C.2       1 N2A         0.1676
     25 N48        14.2860  -13.1300  -47.0860 N.pl3     1 N2A        -0.1738
     26 C49        12.9530  -13.3230  -47.0690 C.2       1 N2A         0.1602
     27 O56        11.9050  -10.8280  -44.8200 O.2       1 N2A        -0.3457
     28 O58         8.5250  -17.4020  -39.7870 O.2       1 N2A        -0.3949
     29 C60        14.8130  -10.2600  -44.7430 C.ar      1 N2A         0.0479
     30 C62        14.1420   -9.0660  -44.4790 C.ar      1 N2A        -0.0225
     31 C63        14.7230   -8.0530  -43.7250 C.ar      1 N2A        -0.0207
     32 C64        15.9990   -8.2060  -43.2210 C.ar      1 N2A         0.0785
     33 C65        16.7300   -9.4640  -43.5010 C.ar      1 N2A         0.0232
     34 C66        16.1090  -10.4530  -44.2530 C.ar      1 N2A        -0.0167
     35 CL73       16.7330   -6.8920  -42.2550 Cl        1 N2A        -0.0427
     36 C75        18.1290   -9.6890  -42.9880 C.3       1 N2A         0.0713
     37 N77        18.0970  -10.6440  -41.9060 N.am      1 N2A        -0.2742
     38 C79        19.0660  -11.5290  -41.7080 C.2       1 N2A         0.2039
     39 O81        20.0310  -11.6070  -42.4490 O.2       1 N2A        -0.3864
     40 C83        18.9670  -12.4430  -40.5250 C.ar      1 N2A         0.0458
     41 C85        20.0960  -12.7170  -39.7540 C.ar      1 N2A        -0.0437
     42 C86        19.9950  -13.5660  -38.6520 C.ar      1 N2A        -0.0223
     43 C87        18.7630  -14.1260  -38.3220 C.ar      1 N2A         0.1375
     44 C88        17.6390  -13.8480  -39.0890 C.ar      1 N2A        -0.0223
     45 C89        17.7420  -13.0090  -40.1870 C.ar      1 N2A        -0.0437
     46 F96        18.6510  -14.9390  -37.2630 F         1 N2A        -0.1794
     47 H          13.3709  -18.4609  -41.1088 H         1 N2A         0.0465
     48 H          11.6754  -20.0622  -36.6594 H         1 N2A         0.0461
     49 H          13.9982  -20.5453  -37.3969 H         1 N2A         0.0460
     50 H          11.5977  -17.8032  -42.2902 H         1 N2A         0.0620
     51 H           8.6260  -17.8219  -36.8824 H         1 N2A         0.0549
     52 H           8.0756  -19.3403  -37.6326 H         1 N2A         0.0549
     53 H           9.4341  -19.3573  -36.4814 H         1 N2A         0.0549
     54 H           8.7799  -16.7814  -42.1283 H         1 N2A         0.0273
     55 H           9.2470  -18.4023  -42.6195 H         1 N2A         0.0273
     56 H           9.0355  -16.8086  -44.5739 H         1 N2A         0.0018
     57 H          10.6402  -17.5145  -44.4416 H         1 N2A         0.0018
     58 H           9.6952  -14.5092  -42.1462 H         1 N2A         0.0018
     59 H          11.3297  -13.9935  -42.6245 H         1 N2A         0.0018
     60 H          12.3481  -15.7784  -41.6205 H         1 N2A         0.0273
     61 H          10.9158  -15.5231  -40.5161 H         1 N2A         0.0273
     62 H          10.7746  -15.4693  -45.8618 H         1 N2A         0.0017
     63 H          12.0259  -14.6523  -44.9248 H         1 N2A         0.0017
     64 H          10.3614  -12.9231  -44.2209 H         1 N2A         0.0254
     65 H           9.1215  -13.7367  -45.1929 H         1 N2A         0.0254
     66 H          10.1775  -11.8246  -46.3743 H         1 N2A         0.0392
     67 H          10.4391  -13.4040  -47.2162 H         1 N2A         0.0392
     68 H          15.9806  -12.0685  -46.4104 H         1 N2A         0.1854
     69 H          14.8579  -13.7357  -47.6746 H         1 N2A         0.2867
     70 H          12.5261  -14.1169  -47.6818 H         1 N2A         0.1674
     71 H          13.1362   -8.9236  -44.8741 H         1 N2A         0.0785
     72 H          14.1690   -7.1345  -43.5310 H         1 N2A         0.0701
     73 H          16.6344  -11.3847  -44.4625 H         1 N2A         0.0717
     74 H          18.5401   -8.7458  -42.6281 H         1 N2A         0.0698
     75 H          18.7540  -10.0738  -43.7939 H         1 N2A         0.0698
     76 H          17.2998  -10.6384  -41.2698 H         1 N2A         0.1872
     77 H          21.0555  -12.2687  -40.0119 H         1 N2A         0.0659
     78 H          20.8765  -13.7904  -38.0515 H         1 N2A         0.0616
     79 H          16.6772  -14.2892  -38.8276 H         1 N2A         0.0616
     80 H          16.8594  -12.7916  -40.7885 H         1 N2A         0.0659
@<TRIPOS>BOND
     1    1    2 ar 
     2    1    6 ar 
     3    1   12 1  
     4    2    3 ar 
     5    3    4 ar 
     6    3    9 1  
     7    4    5 ar 
     8    4    7 1  
     9    5    6 ar 
    10    7    8 am 
    11    7   11 1  
    12    8    9 am 
    13    8   28 2  
    14    9   10 1  
    15   10   13 1  
    16   10   17 1  
    17   13   14 1  
    18   14   15 1  
    19   15   16 1  
    20   15   18 1  
    21   16   17 1  
    22   18   19 1  
    23   19   20 1  
    24   20   21 1  
    25   21   22 1  
    26   21   26 2  
    27   22   23 1  
    28   22   27 2  
    29   23   24 2  
    30   23   29 1  
    31   24   25 1  
    32   25   26 1  
    33   29   30 ar 
    34   29   34 ar 
    35   30   31 ar 
    36   31   32 ar 
    37   32   33 ar 
    38   32   35 1  
    39   33   34 ar 
    40   33   36 1  
    41   36   37 1  
    42   37   38 am 
    43   38   39 2  
    44   38   40 1  
    45   40   41 ar 
    46   40   45 ar 
    47   41   42 ar 
    48   42   43 ar 
    49   43   44 ar 
    50   43   46 1  
    51   44   45 ar 
    52    2   47 1  
    53    5   48 1  
    54    6   49 1  
    55   10   50 1  
    56   11   51 1  
    57   11   52 1  
    58   11   53 1  
    59   13   54 1  
    60   13   55 1  
    61   14   56 1  
    62   14   57 1  
    63   16   58 1  
    64   16   59 1  
    65   17   60 1  
    66   17   61 1  
    67   18   62 1  
    68   18   63 1  
    69   19   64 1  
    70   19   65 1  
    71   20   66 1  
    72   20   67 1  
    73   24   68 1  
    74   25   69 1  
    75   26   70 1  
    76   30   71 1  
    77   31   72 1  
    78   34   73 1  
    79   36   74 1  
    80   36   75 1  
    81   37   76 1  
    82   41   77 1  
    83   42   78 1  
    84   44   79 1  
    85   45   80 1  
@<TRIPOS>SUBSTRUCTURE
     1 N2A         1

